file 100378 1669299167                                          
version 3
run Static-0-20221124-19:42:16-14392
attr configname Static
attr datetime 20221124-19:42:16
attr datetimef 20221124-194216
attr experiment Static
attr inifile omnetpp.ini
attr iterationvars ""
attr iterationvarsd ""
attr iterationvarsf ""
attr measurement ""
attr network IEEE_802154_Net
attr processid 14392
attr repetition 0
attr replication #0
attr resultdir results
attr runnumber 0
attr seedset 0
config image-path ../../inet4.4/images
config description "Static scenario with a number of slave nodes sending messages to master node"
config network IEEE_802154_Net
config sim-time-limit 600s
config **.arp.typename GlobalArp
config **.netmaskRoutes "\"\""
config *.radioMedium.backgroundNoise.power -110dBm
config *.configurator.config "xmldoc(\"topology.xml\")"
config *.num 65
config *.slave*.mobility.typename StationaryMobility
config *.slave*.mobility.constraintAreaMaxX 350m
config *.slave*.mobility.constraintAreaMinX 150m
config *.slave*.mobility.constraintAreaMaxY 350m
config *.slave*.mobility.constraintAreaMinY 150m
config *.slave*.mobility.constraintAreaMaxZ 0m
config *.slave*.mobility.constraintAreaMinZ 0m
config *.slave*.numApps 1
config *.slave*.app[0].typename UdpBasicApp
config *.slave*.app[0].destAddresses "\"master\""
config *.slave*.app[0].destPort 1000
config *.slave*.app[0].sendInterval 1s
config *.slave*.app[0].startTime 0s
config *.slave*.app[0].messageLength 10Byte
config *.master.numApps 1
config *.master.app[0].typename UdpSink
config *.master.app[0].localPort 1000
config *.visualizer.*.mediumVisualizer[0].displayCommunicationRanges true
config *.visualizer.*.mediumVisualizer[0].nodeFilter "\"master\""
config *.visualizer.*.routingTableVisualizer[0].displayRoutingTables false
config *.visualizer.*.routingTableVisualizer[0].displayRoutesIndividually true
config *.visualizer.*.routingTableVisualizer[0].lineShift 0
config *.visualizer.*.routingTableVisualizer[0].displayLabels false
config *.visualizer.*.interfaceTableVisualizer[0].displayInterfaceTables true
config *.visualizer.*.numDataLinkVisualizers 2
config *.visualizer.*.dataLinkVisualizer[*].displayLinks true
config *.visualizer.*.dataLinkVisualizer[0].nodeFilter "\"slave* or master\""
config *.visualizer.*.numStatisticVisualizers 2
config *.visualizer.*.statisticVisualizer[*].zIndex 1
config *.visualizer.*.statisticVisualizer[0].displayStatistics true
config *.visualizer.*.statisticVisualizer[0].signalName "\"packetSent\""
config *.visualizer.*.statisticVisualizer[0].statisticExpression "\"count\""
config *.visualizer.*.statisticVisualizer[0].sourceFilter "\"**.master.udp **.slave*.udp\""
config *.visualizer.*.statisticVisualizer[0].format "\"sent: %v pks\""
config *.visualizer.*.statisticVisualizer[1].displayStatistics true
config *.visualizer.*.statisticVisualizer[1].signalName "\"packetReceived\""
config *.visualizer.*.statisticVisualizer[1].statisticExpression "\"count\""
config *.visualizer.*.statisticVisualizer[1].sourceFilter "\"**.master.udp **.slave*.udp\""
config *.visualizer.*.statisticVisualizer[1].format "\"rcvd: %v pks\""

vector 0 IEEE_802154_Net.slave[0].udp passedUpPk:vector(count) ETV
attr interpolationmode none
attr recordingmode vector(count)
attr source packetSentToUpper
attr title "packets passed up, count"
vector 1 IEEE_802154_Net.slave[0].udp droppedPkWrongPort:vector(count) ETV
attr interpolationmode none
attr recordingmode vector(count)
attr source packetDropReasonIsNoPortFound(packetDropped)
attr title "packets dropped (wrong port), count"
vector 2 IEEE_802154_Net.slave[0].udp droppedPkBadChecksum:vector(count) ETV
attr interpolationmode none
attr recordingmode vector(count)
attr source packetDropReasonIsIncorrectlyReceived(packetDropped)
attr title "packets dropped (checksum error), count"
vector 3 IEEE_802154_Net.slave[1].udp passedUpPk:vector(count) ETV
attr interpolationmode none
attr recordingmode vector(count)
attr source packetSentToUpper
attr title "packets passed up, count"
vector 4 IEEE_802154_Net.slave[1].udp droppedPkWrongPort:vector(count) ETV
attr interpolationmode none
attr recordingmode vector(count)
attr source packetDropReasonIsNoPortFound(packetDropped)
attr title "packets dropped (wrong port), count"
vector 5 IEEE_802154_Net.slave[1].udp droppedPkBadChecksum:vector(count) ETV
attr interpolationmode none
attr recordingmode vector(count)
attr source packetDropReasonIsIncorrectlyReceived(packetDropped)
attr title "packets dropped (checksum error), count"
vector 6 IEEE_802154_Net.slave[2].udp passedUpPk:vector(count) ETV
attr interpolationmode none
attr recordingmode vector(count)
attr source packetSentToUpper
attr title "packets passed up, count"
vector 7 IEEE_802154_Net.slave[2].udp droppedPkWrongPort:vector(count) ETV
attr interpolationmode none
attr recordingmode vector(count)
attr source packetDropReasonIsNoPortFound(packetDropped)
attr title "packets dropped (wrong port), count"
vector 8 IEEE_802154_Net.slave[2].udp droppedPkBadChecksum:vector(count) ETV
attr interpolationmode none
attr recordingmode vector(count)
attr source packetDropReasonIsIncorrectlyReceived(packetDropped)
attr title "packets dropped (checksum error), count"
vector 9 IEEE_802154_Net.slave[3].udp passedUpPk:vector(count) ETV
attr interpolationmode none
attr recordingmode vector(count)
attr source packetSentToUpper
attr title "packets passed up, count"
vector 10 IEEE_802154_Net.slave[3].udp droppedPkWrongPort:vector(count) ETV
attr interpolationmode none
attr recordingmode vector(count)
attr source packetDropReasonIsNoPortFound(packetDropped)
attr title "packets dropped (wrong port), count"
vector 11 IEEE_802154_Net.slave[3].udp droppedPkBadChecksum:vector(count) ETV
attr interpolationmode none
attr recordingmode vector(count)
attr source packetDropReasonIsIncorrectlyReceived(packetDropped)
attr title "packets dropped (checksum error), count"
vector 12 IEEE_802154_Net.slave[4].udp passedUpPk:vector(count) ETV
attr interpolationmode none
attr recordingmode vector(count)
attr source packetSentToUpper
attr title "packets passed up, count"
vector 13 IEEE_802154_Net.slave[4].udp droppedPkWrongPort:vector(count) ETV
attr interpolationmode none
attr recordingmode vector(count)
attr source packetDropReasonIsNoPortFound(packetDropped)
attr title "packets dropped (wrong port), count"
vector 14 IEEE_802154_Net.slave[4].udp droppedPkBadChecksum:vector(count) ETV
attr interpolationmode none
attr recordingmode vector(count)
attr source packetDropReasonIsIncorrectlyReceived(packetDropped)
attr title "packets dropped (checksum error), count"
vector 15 IEEE_802154_Net.slave[5].udp passedUpPk:vector(count) ETV
attr interpolationmode none
attr recordingmode vector(count)
attr source packetSentToUpper
attr title "packets passed up, count"
vector 16 IEEE_802154_Net.slave[5].udp droppedPkWrongPort:vector(count) ETV
attr interpolationmode none
attr recordingmode vector(count)
attr source packetDropReasonIsNoPortFound(packetDropped)
attr title "packets dropped (wrong port), count"
vector 17 IEEE_802154_Net.slave[5].udp droppedPkBadChecksum:vector(count) ETV
attr interpolationmode none
attr recordingmode vector(count)
attr source packetDropReasonIsIncorrectlyReceived(packetDropped)
attr title "packets dropped (checksum error), count"
vector 18 IEEE_802154_Net.slave[6].udp passedUpPk:vector(count) ETV
attr interpolationmode none
attr recordingmode vector(count)
attr source packetSentToUpper
attr title "packets passed up, count"
vector 19 IEEE_802154_Net.slave[6].udp droppedPkWrongPort:vector(count) ETV
attr interpolationmode none
attr recordingmode vector(count)
attr source packetDropReasonIsNoPortFound(packetDropped)
attr title "packets dropped (wrong port), count"
vector 20 IEEE_802154_Net.slave[6].udp droppedPkBadChecksum:vector(count) ETV
attr interpolationmode none
attr recordingmode vector(count)
attr source packetDropReasonIsIncorrectlyReceived(packetDropped)
attr title "packets dropped (checksum error), count"
vector 21 IEEE_802154_Net.slave[7].udp passedUpPk:vector(count) ETV
attr interpolationmode none
attr recordingmode vector(count)
attr source packetSentToUpper
attr title "packets passed up, count"
vector 22 IEEE_802154_Net.slave[7].udp droppedPkWrongPort:vector(count) ETV
attr interpolationmode none
attr recordingmode vector(count)
attr source packetDropReasonIsNoPortFound(packetDropped)
attr title "packets dropped (wrong port), count"
vector 23 IEEE_802154_Net.slave[7].udp droppedPkBadChecksum:vector(count) ETV
attr interpolationmode none
attr recordingmode vector(count)
attr source packetDropReasonIsIncorrectlyReceived(packetDropped)
attr title "packets dropped (checksum error), count"
vector 24 IEEE_802154_Net.slave[8].udp passedUpPk:vector(count) ETV
attr interpolationmode none
attr recordingmode vector(count)
attr source packetSentToUpper
attr title "packets passed up, count"
vector 25 IEEE_802154_Net.slave[8].udp droppedPkWrongPort:vector(count) ETV
attr interpolationmode none
attr recordingmode vector(count)
attr source packetDropReasonIsNoPortFound(packetDropped)
attr title "packets dropped (wrong port), count"
vector 26 IEEE_802154_Net.slave[8].udp droppedPkBadChecksum:vector(count) ETV
attr interpolationmode none
attr recordingmode vector(count)
attr source packetDropReasonIsIncorrectlyReceived(packetDropped)
attr title "packets dropped (checksum error), count"
vector 27 IEEE_802154_Net.slave[9].udp passedUpPk:vector(count) ETV
attr interpolationmode none
attr recordingmode vector(count)
attr source packetSentToUpper
attr title "packets passed up, count"
vector 28 IEEE_802154_Net.slave[9].udp droppedPkWrongPort:vector(count) ETV
attr interpolationmode none
attr recordingmode vector(count)
attr source packetDropReasonIsNoPortFound(packetDropped)
attr title "packets dropped (wrong port), count"
vector 29 IEEE_802154_Net.slave[9].udp droppedPkBadChecksum:vector(count) ETV
attr interpolationmode none
attr recordingmode vector(count)
attr source packetDropReasonIsIncorrectlyReceived(packetDropped)
attr title "packets dropped (checksum error), count"
vector 30 IEEE_802154_Net.slave[10].udp passedUpPk:vector(count) ETV
attr interpolationmode none
attr recordingmode vector(count)
attr source packetSentToUpper
attr title "packets passed up, count"
vector 31 IEEE_802154_Net.slave[10].udp droppedPkWrongPort:vector(count) ETV
attr interpolationmode none
attr recordingmode vector(count)
attr source packetDropReasonIsNoPortFound(packetDropped)
attr title "packets dropped (wrong port), count"
vector 32 IEEE_802154_Net.slave[10].udp droppedPkBadChecksum:vector(count) ETV
attr interpolationmode none
attr recordingmode vector(count)
attr source packetDropReasonIsIncorrectlyReceived(packetDropped)
attr title "packets dropped (checksum error), count"
vector 33 IEEE_802154_Net.slave[11].udp passedUpPk:vector(count) ETV
attr interpolationmode none
attr recordingmode vector(count)
attr source packetSentToUpper
attr title "packets passed up, count"
vector 34 IEEE_802154_Net.slave[11].udp droppedPkWrongPort:vector(count) ETV
attr interpolationmode none
attr recordingmode vector(count)
attr source packetDropReasonIsNoPortFound(packetDropped)
attr title "packets dropped (wrong port), count"
vector 35 IEEE_802154_Net.slave[11].udp droppedPkBadChecksum:vector(count) ETV
attr interpolationmode none
attr recordingmode vector(count)
attr source packetDropReasonIsIncorrectlyReceived(packetDropped)
attr title "packets dropped (checksum error), count"
vector 36 IEEE_802154_Net.slave[12].udp passedUpPk:vector(count) ETV
attr interpolationmode none
attr recordingmode vector(count)
attr source packetSentToUpper
attr title "packets passed up, count"
vector 37 IEEE_802154_Net.slave[12].udp droppedPkWrongPort:vector(count) ETV
attr interpolationmode none
attr recordingmode vector(count)
attr source packetDropReasonIsNoPortFound(packetDropped)
attr title "packets dropped (wrong port), count"
vector 38 IEEE_802154_Net.slave[12].udp droppedPkBadChecksum:vector(count) ETV
attr interpolationmode none
attr recordingmode vector(count)
attr source packetDropReasonIsIncorrectlyReceived(packetDropped)
attr title "packets dropped (checksum error), count"
vector 39 IEEE_802154_Net.slave[13].udp passedUpPk:vector(count) ETV
attr interpolationmode none
attr recordingmode vector(count)
attr source packetSentToUpper
attr title "packets passed up, count"
vector 40 IEEE_802154_Net.slave[13].udp droppedPkWrongPort:vector(count) ETV
attr interpolationmode none
attr recordingmode vector(count)
attr source packetDropReasonIsNoPortFound(packetDropped)
attr title "packets dropped (wrong port), count"
vector 41 IEEE_802154_Net.slave[13].udp droppedPkBadChecksum:vector(count) ETV
attr interpolationmode none
attr recordingmode vector(count)
attr source packetDropReasonIsIncorrectlyReceived(packetDropped)
attr title "packets dropped (checksum error), count"
vector 42 IEEE_802154_Net.slave[14].udp passedUpPk:vector(count) ETV
attr interpolationmode none
attr recordingmode vector(count)
attr source packetSentToUpper
attr title "packets passed up, count"
vector 43 IEEE_802154_Net.slave[14].udp droppedPkWrongPort:vector(count) ETV
attr interpolationmode none
attr recordingmode vector(count)
attr source packetDropReasonIsNoPortFound(packetDropped)
attr title "packets dropped (wrong port), count"
vector 44 IEEE_802154_Net.slave[14].udp droppedPkBadChecksum:vector(count) ETV
attr interpolationmode none
attr recordingmode vector(count)
attr source packetDropReasonIsIncorrectlyReceived(packetDropped)
attr title "packets dropped (checksum error), count"
vector 45 IEEE_802154_Net.slave[15].udp passedUpPk:vector(count) ETV
attr interpolationmode none
attr recordingmode vector(count)
attr source packetSentToUpper
attr title "packets passed up, count"
vector 46 IEEE_802154_Net.slave[15].udp droppedPkWrongPort:vector(count) ETV
attr interpolationmode none
attr recordingmode vector(count)
attr source packetDropReasonIsNoPortFound(packetDropped)
attr title "packets dropped (wrong port), count"
vector 47 IEEE_802154_Net.slave[15].udp droppedPkBadChecksum:vector(count) ETV
attr interpolationmode none
attr recordingmode vector(count)
attr source packetDropReasonIsIncorrectlyReceived(packetDropped)
attr title "packets dropped (checksum error), count"
vector 48 IEEE_802154_Net.slave[16].udp passedUpPk:vector(count) ETV
attr interpolationmode none
attr recordingmode vector(count)
attr source packetSentToUpper
attr title "packets passed up, count"
vector 49 IEEE_802154_Net.slave[16].udp droppedPkWrongPort:vector(count) ETV
attr interpolationmode none
attr recordingmode vector(count)
attr source packetDropReasonIsNoPortFound(packetDropped)
attr title "packets dropped (wrong port), count"
vector 50 IEEE_802154_Net.slave[16].udp droppedPkBadChecksum:vector(count) ETV
attr interpolationmode none
attr recordingmode vector(count)
attr source packetDropReasonIsIncorrectlyReceived(packetDropped)
attr title "packets dropped (checksum error), count"
vector 51 IEEE_802154_Net.slave[17].udp passedUpPk:vector(count) ETV
attr interpolationmode none
attr recordingmode vector(count)
attr source packetSentToUpper
attr title "packets passed up, count"
vector 52 IEEE_802154_Net.slave[17].udp droppedPkWrongPort:vector(count) ETV
attr interpolationmode none
attr recordingmode vector(count)
attr source packetDropReasonIsNoPortFound(packetDropped)
attr title "packets dropped (wrong port), count"
vector 53 IEEE_802154_Net.slave[17].udp droppedPkBadChecksum:vector(count) ETV
attr interpolationmode none
attr recordingmode vector(count)
attr source packetDropReasonIsIncorrectlyReceived(packetDropped)
attr title "packets dropped (checksum error), count"
vector 54 IEEE_802154_Net.slave[18].udp passedUpPk:vector(count) ETV
attr interpolationmode none
attr recordingmode vector(count)
attr source packetSentToUpper
attr title "packets passed up, count"
vector 55 IEEE_802154_Net.slave[18].udp droppedPkWrongPort:vector(count) ETV
attr interpolationmode none
attr recordingmode vector(count)
attr source packetDropReasonIsNoPortFound(packetDropped)
attr title "packets dropped (wrong port), count"
vector 56 IEEE_802154_Net.slave[18].udp droppedPkBadChecksum:vector(count) ETV
attr interpolationmode none
attr recordingmode vector(count)
attr source packetDropReasonIsIncorrectlyReceived(packetDropped)
attr title "packets dropped (checksum error), count"
vector 57 IEEE_802154_Net.slave[19].udp passedUpPk:vector(count) ETV
attr interpolationmode none
attr recordingmode vector(count)
attr source packetSentToUpper
attr title "packets passed up, count"
vector 58 IEEE_802154_Net.slave[19].udp droppedPkWrongPort:vector(count) ETV
attr interpolationmode none
attr recordingmode vector(count)
attr source packetDropReasonIsNoPortFound(packetDropped)
attr title "packets dropped (wrong port), count"
vector 59 IEEE_802154_Net.slave[19].udp droppedPkBadChecksum:vector(count) ETV
attr interpolationmode none
attr recordingmode vector(count)
attr source packetDropReasonIsIncorrectlyReceived(packetDropped)
attr title "packets dropped (checksum error), count"
vector 60 IEEE_802154_Net.slave[20].udp passedUpPk:vector(count) ETV
attr interpolationmode none
attr recordingmode vector(count)
attr source packetSentToUpper
attr title "packets passed up, count"
vector 61 IEEE_802154_Net.slave[20].udp droppedPkWrongPort:vector(count) ETV
attr interpolationmode none
attr recordingmode vector(count)
attr source packetDropReasonIsNoPortFound(packetDropped)
attr title "packets dropped (wrong port), count"
vector 62 IEEE_802154_Net.slave[20].udp droppedPkBadChecksum:vector(count) ETV
attr interpolationmode none
attr recordingmode vector(count)
attr source packetDropReasonIsIncorrectlyReceived(packetDropped)
attr title "packets dropped (checksum error), count"
vector 63 IEEE_802154_Net.slave[21].udp passedUpPk:vector(count) ETV
attr interpolationmode none
attr recordingmode vector(count)
attr source packetSentToUpper
attr title "packets passed up, count"
vector 64 IEEE_802154_Net.slave[21].udp droppedPkWrongPort:vector(count) ETV
attr interpolationmode none
attr recordingmode vector(count)
attr source packetDropReasonIsNoPortFound(packetDropped)
attr title "packets dropped (wrong port), count"
vector 65 IEEE_802154_Net.slave[21].udp droppedPkBadChecksum:vector(count) ETV
attr interpolationmode none
attr recordingmode vector(count)
attr source packetDropReasonIsIncorrectlyReceived(packetDropped)
attr title "packets dropped (checksum error), count"
vector 66 IEEE_802154_Net.slave[22].udp passedUpPk:vector(count) ETV
attr interpolationmode none
attr recordingmode vector(count)
attr source packetSentToUpper
attr title "packets passed up, count"
vector 67 IEEE_802154_Net.slave[22].udp droppedPkWrongPort:vector(count) ETV
attr interpolationmode none
attr recordingmode vector(count)
attr source packetDropReasonIsNoPortFound(packetDropped)
attr title "packets dropped (wrong port), count"
vector 68 IEEE_802154_Net.slave[22].udp droppedPkBadChecksum:vector(count) ETV
attr interpolationmode none
attr recordingmode vector(count)
attr source packetDropReasonIsIncorrectlyReceived(packetDropped)
attr title "packets dropped (checksum error), count"
vector 69 IEEE_802154_Net.slave[23].udp passedUpPk:vector(count) ETV
attr interpolationmode none
attr recordingmode vector(count)
attr source packetSentToUpper
attr title "packets passed up, count"
vector 70 IEEE_802154_Net.slave[23].udp droppedPkWrongPort:vector(count) ETV
attr interpolationmode none
attr recordingmode vector(count)
attr source packetDropReasonIsNoPortFound(packetDropped)
attr title "packets dropped (wrong port), count"
vector 71 IEEE_802154_Net.slave[23].udp droppedPkBadChecksum:vector(count) ETV
attr interpolationmode none
attr recordingmode vector(count)
attr source packetDropReasonIsIncorrectlyReceived(packetDropped)
attr title "packets dropped (checksum error), count"
vector 72 IEEE_802154_Net.slave[24].udp passedUpPk:vector(count) ETV
attr interpolationmode none
attr recordingmode vector(count)
attr source packetSentToUpper
attr title "packets passed up, count"
vector 73 IEEE_802154_Net.slave[24].udp droppedPkWrongPort:vector(count) ETV
attr interpolationmode none
attr recordingmode vector(count)
attr source packetDropReasonIsNoPortFound(packetDropped)
attr title "packets dropped (wrong port), count"
vector 74 IEEE_802154_Net.slave[24].udp droppedPkBadChecksum:vector(count) ETV
attr interpolationmode none
attr recordingmode vector(count)
attr source packetDropReasonIsIncorrectlyReceived(packetDropped)
attr title "packets dropped (checksum error), count"
vector 75 IEEE_802154_Net.slave[25].udp passedUpPk:vector(count) ETV
attr interpolationmode none
attr recordingmode vector(count)
attr source packetSentToUpper
attr title "packets passed up, count"
vector 76 IEEE_802154_Net.slave[25].udp droppedPkWrongPort:vector(count) ETV
attr interpolationmode none
attr recordingmode vector(count)
attr source packetDropReasonIsNoPortFound(packetDropped)
attr title "packets dropped (wrong port), count"
vector 77 IEEE_802154_Net.slave[25].udp droppedPkBadChecksum:vector(count) ETV
attr interpolationmode none
attr recordingmode vector(count)
attr source packetDropReasonIsIncorrectlyReceived(packetDropped)
attr title "packets dropped (checksum error), count"
vector 78 IEEE_802154_Net.slave[26].udp passedUpPk:vector(count) ETV
attr interpolationmode none
attr recordingmode vector(count)
attr source packetSentToUpper
attr title "packets passed up, count"
vector 79 IEEE_802154_Net.slave[26].udp droppedPkWrongPort:vector(count) ETV
attr interpolationmode none
attr recordingmode vector(count)
attr source packetDropReasonIsNoPortFound(packetDropped)
attr title "packets dropped (wrong port), count"
vector 80 IEEE_802154_Net.slave[26].udp droppedPkBadChecksum:vector(count) ETV
attr interpolationmode none
attr recordingmode vector(count)
attr source packetDropReasonIsIncorrectlyReceived(packetDropped)
attr title "packets dropped (checksum error), count"
vector 81 IEEE_802154_Net.slave[27].udp passedUpPk:vector(count) ETV
attr interpolationmode none
attr recordingmode vector(count)
attr source packetSentToUpper
attr title "packets passed up, count"
vector 82 IEEE_802154_Net.slave[27].udp droppedPkWrongPort:vector(count) ETV
attr interpolationmode none
attr recordingmode vector(count)
attr source packetDropReasonIsNoPortFound(packetDropped)
attr title "packets dropped (wrong port), count"
vector 83 IEEE_802154_Net.slave[27].udp droppedPkBadChecksum:vector(count) ETV
attr interpolationmode none
attr recordingmode vector(count)
attr source packetDropReasonIsIncorrectlyReceived(packetDropped)
attr title "packets dropped (checksum error), count"
vector 84 IEEE_802154_Net.slave[28].udp passedUpPk:vector(count) ETV
attr interpolationmode none
attr recordingmode vector(count)
attr source packetSentToUpper
attr title "packets passed up, count"
vector 85 IEEE_802154_Net.slave[28].udp droppedPkWrongPort:vector(count) ETV
attr interpolationmode none
attr recordingmode vector(count)
attr source packetDropReasonIsNoPortFound(packetDropped)
attr title "packets dropped (wrong port), count"
vector 86 IEEE_802154_Net.slave[28].udp droppedPkBadChecksum:vector(count) ETV
attr interpolationmode none
attr recordingmode vector(count)
attr source packetDropReasonIsIncorrectlyReceived(packetDropped)
attr title "packets dropped (checksum error), count"
vector 87 IEEE_802154_Net.slave[29].udp passedUpPk:vector(count) ETV
attr interpolationmode none
attr recordingmode vector(count)
attr source packetSentToUpper
attr title "packets passed up, count"
vector 88 IEEE_802154_Net.slave[29].udp droppedPkWrongPort:vector(count) ETV
attr interpolationmode none
attr recordingmode vector(count)
attr source packetDropReasonIsNoPortFound(packetDropped)
attr title "packets dropped (wrong port), count"
vector 89 IEEE_802154_Net.slave[29].udp droppedPkBadChecksum:vector(count) ETV
attr interpolationmode none
attr recordingmode vector(count)
attr source packetDropReasonIsIncorrectlyReceived(packetDropped)
attr title "packets dropped (checksum error), count"
vector 90 IEEE_802154_Net.slave[30].udp passedUpPk:vector(count) ETV
attr interpolationmode none
attr recordingmode vector(count)
attr source packetSentToUpper
attr title "packets passed up, count"
vector 91 IEEE_802154_Net.slave[30].udp droppedPkWrongPort:vector(count) ETV
attr interpolationmode none
attr recordingmode vector(count)
attr source packetDropReasonIsNoPortFound(packetDropped)
attr title "packets dropped (wrong port), count"
vector 92 IEEE_802154_Net.slave[30].udp droppedPkBadChecksum:vector(count) ETV
attr interpolationmode none
attr recordingmode vector(count)
attr source packetDropReasonIsIncorrectlyReceived(packetDropped)
attr title "packets dropped (checksum error), count"
vector 93 IEEE_802154_Net.slave[31].udp passedUpPk:vector(count) ETV
attr interpolationmode none
attr recordingmode vector(count)
attr source packetSentToUpper
attr title "packets passed up, count"
vector 94 IEEE_802154_Net.slave[31].udp droppedPkWrongPort:vector(count) ETV
attr interpolationmode none
attr recordingmode vector(count)
attr source packetDropReasonIsNoPortFound(packetDropped)
attr title "packets dropped (wrong port), count"
vector 95 IEEE_802154_Net.slave[31].udp droppedPkBadChecksum:vector(count) ETV
attr interpolationmode none
attr recordingmode vector(count)
attr source packetDropReasonIsIncorrectlyReceived(packetDropped)
attr title "packets dropped (checksum error), count"
vector 96 IEEE_802154_Net.slave[32].udp passedUpPk:vector(count) ETV
attr interpolationmode none
attr recordingmode vector(count)
attr source packetSentToUpper
attr title "packets passed up, count"
vector 97 IEEE_802154_Net.slave[32].udp droppedPkWrongPort:vector(count) ETV
attr interpolationmode none
attr recordingmode vector(count)
attr source packetDropReasonIsNoPortFound(packetDropped)
attr title "packets dropped (wrong port), count"
vector 98 IEEE_802154_Net.slave[32].udp droppedPkBadChecksum:vector(count) ETV
attr interpolationmode none
attr recordingmode vector(count)
attr source packetDropReasonIsIncorrectlyReceived(packetDropped)
attr title "packets dropped (checksum error), count"
vector 99 IEEE_802154_Net.slave[33].udp passedUpPk:vector(count) ETV
attr interpolationmode none
attr recordingmode vector(count)
attr source packetSentToUpper
attr title "packets passed up, count"
vector 100 IEEE_802154_Net.slave[33].udp droppedPkWrongPort:vector(count) ETV
attr interpolationmode none
attr recordingmode vector(count)
attr source packetDropReasonIsNoPortFound(packetDropped)
attr title "packets dropped (wrong port), count"
vector 101 IEEE_802154_Net.slave[33].udp droppedPkBadChecksum:vector(count) ETV
attr interpolationmode none
attr recordingmode vector(count)
attr source packetDropReasonIsIncorrectlyReceived(packetDropped)
attr title "packets dropped (checksum error), count"
vector 102 IEEE_802154_Net.slave[34].udp passedUpPk:vector(count) ETV
attr interpolationmode none
attr recordingmode vector(count)
attr source packetSentToUpper
attr title "packets passed up, count"
vector 103 IEEE_802154_Net.slave[34].udp droppedPkWrongPort:vector(count) ETV
attr interpolationmode none
attr recordingmode vector(count)
attr source packetDropReasonIsNoPortFound(packetDropped)
attr title "packets dropped (wrong port), count"
vector 104 IEEE_802154_Net.slave[34].udp droppedPkBadChecksum:vector(count) ETV
attr interpolationmode none
attr recordingmode vector(count)
attr source packetDropReasonIsIncorrectlyReceived(packetDropped)
attr title "packets dropped (checksum error), count"
vector 105 IEEE_802154_Net.slave[35].udp passedUpPk:vector(count) ETV
attr interpolationmode none
attr recordingmode vector(count)
attr source packetSentToUpper
attr title "packets passed up, count"
vector 106 IEEE_802154_Net.slave[35].udp droppedPkWrongPort:vector(count) ETV
attr interpolationmode none
attr recordingmode vector(count)
attr source packetDropReasonIsNoPortFound(packetDropped)
attr title "packets dropped (wrong port), count"
vector 107 IEEE_802154_Net.slave[35].udp droppedPkBadChecksum:vector(count) ETV
attr interpolationmode none
attr recordingmode vector(count)
attr source packetDropReasonIsIncorrectlyReceived(packetDropped)
attr title "packets dropped (checksum error), count"
vector 108 IEEE_802154_Net.slave[36].udp passedUpPk:vector(count) ETV
attr interpolationmode none
attr recordingmode vector(count)
attr source packetSentToUpper
attr title "packets passed up, count"
vector 109 IEEE_802154_Net.slave[36].udp droppedPkWrongPort:vector(count) ETV
attr interpolationmode none
attr recordingmode vector(count)
attr source packetDropReasonIsNoPortFound(packetDropped)
attr title "packets dropped (wrong port), count"
vector 110 IEEE_802154_Net.slave[36].udp droppedPkBadChecksum:vector(count) ETV
attr interpolationmode none
attr recordingmode vector(count)
attr source packetDropReasonIsIncorrectlyReceived(packetDropped)
attr title "packets dropped (checksum error), count"
vector 111 IEEE_802154_Net.slave[37].udp passedUpPk:vector(count) ETV
attr interpolationmode none
attr recordingmode vector(count)
attr source packetSentToUpper
attr title "packets passed up, count"
vector 112 IEEE_802154_Net.slave[37].udp droppedPkWrongPort:vector(count) ETV
attr interpolationmode none
attr recordingmode vector(count)
attr source packetDropReasonIsNoPortFound(packetDropped)
attr title "packets dropped (wrong port), count"
vector 113 IEEE_802154_Net.slave[37].udp droppedPkBadChecksum:vector(count) ETV
attr interpolationmode none
attr recordingmode vector(count)
attr source packetDropReasonIsIncorrectlyReceived(packetDropped)
attr title "packets dropped (checksum error), count"
vector 114 IEEE_802154_Net.slave[38].udp passedUpPk:vector(count) ETV
attr interpolationmode none
attr recordingmode vector(count)
attr source packetSentToUpper
attr title "packets passed up, count"
vector 115 IEEE_802154_Net.slave[38].udp droppedPkWrongPort:vector(count) ETV
attr interpolationmode none
attr recordingmode vector(count)
attr source packetDropReasonIsNoPortFound(packetDropped)
attr title "packets dropped (wrong port), count"
vector 116 IEEE_802154_Net.slave[38].udp droppedPkBadChecksum:vector(count) ETV
attr interpolationmode none
attr recordingmode vector(count)
attr source packetDropReasonIsIncorrectlyReceived(packetDropped)
attr title "packets dropped (checksum error), count"
vector 117 IEEE_802154_Net.slave[39].udp passedUpPk:vector(count) ETV
attr interpolationmode none
attr recordingmode vector(count)
attr source packetSentToUpper
attr title "packets passed up, count"
vector 118 IEEE_802154_Net.slave[39].udp droppedPkWrongPort:vector(count) ETV
attr interpolationmode none
attr recordingmode vector(count)
attr source packetDropReasonIsNoPortFound(packetDropped)
attr title "packets dropped (wrong port), count"
vector 119 IEEE_802154_Net.slave[39].udp droppedPkBadChecksum:vector(count) ETV
attr interpolationmode none
attr recordingmode vector(count)
attr source packetDropReasonIsIncorrectlyReceived(packetDropped)
attr title "packets dropped (checksum error), count"
vector 120 IEEE_802154_Net.slave[40].udp passedUpPk:vector(count) ETV
attr interpolationmode none
attr recordingmode vector(count)
attr source packetSentToUpper
attr title "packets passed up, count"
vector 121 IEEE_802154_Net.slave[40].udp droppedPkWrongPort:vector(count) ETV
attr interpolationmode none
attr recordingmode vector(count)
attr source packetDropReasonIsNoPortFound(packetDropped)
attr title "packets dropped (wrong port), count"
vector 122 IEEE_802154_Net.slave[40].udp droppedPkBadChecksum:vector(count) ETV
attr interpolationmode none
attr recordingmode vector(count)
attr source packetDropReasonIsIncorrectlyReceived(packetDropped)
attr title "packets dropped (checksum error), count"
vector 123 IEEE_802154_Net.slave[41].udp passedUpPk:vector(count) ETV
attr interpolationmode none
attr recordingmode vector(count)
attr source packetSentToUpper
attr title "packets passed up, count"
vector 124 IEEE_802154_Net.slave[41].udp droppedPkWrongPort:vector(count) ETV
attr interpolationmode none
attr recordingmode vector(count)
attr source packetDropReasonIsNoPortFound(packetDropped)
attr title "packets dropped (wrong port), count"
vector 125 IEEE_802154_Net.slave[41].udp droppedPkBadChecksum:vector(count) ETV
attr interpolationmode none
attr recordingmode vector(count)
attr source packetDropReasonIsIncorrectlyReceived(packetDropped)
attr title "packets dropped (checksum error), count"
vector 126 IEEE_802154_Net.slave[42].udp passedUpPk:vector(count) ETV
attr interpolationmode none
attr recordingmode vector(count)
attr source packetSentToUpper
attr title "packets passed up, count"
vector 127 IEEE_802154_Net.slave[42].udp droppedPkWrongPort:vector(count) ETV
attr interpolationmode none
attr recordingmode vector(count)
attr source packetDropReasonIsNoPortFound(packetDropped)
attr title "packets dropped (wrong port), count"
vector 128 IEEE_802154_Net.slave[42].udp droppedPkBadChecksum:vector(count) ETV
attr interpolationmode none
attr recordingmode vector(count)
attr source packetDropReasonIsIncorrectlyReceived(packetDropped)
attr title "packets dropped (checksum error), count"
vector 129 IEEE_802154_Net.slave[43].udp passedUpPk:vector(count) ETV
attr interpolationmode none
attr recordingmode vector(count)
attr source packetSentToUpper
attr title "packets passed up, count"
vector 130 IEEE_802154_Net.slave[43].udp droppedPkWrongPort:vector(count) ETV
attr interpolationmode none
attr recordingmode vector(count)
attr source packetDropReasonIsNoPortFound(packetDropped)
attr title "packets dropped (wrong port), count"
vector 131 IEEE_802154_Net.slave[43].udp droppedPkBadChecksum:vector(count) ETV
attr interpolationmode none
attr recordingmode vector(count)
attr source packetDropReasonIsIncorrectlyReceived(packetDropped)
attr title "packets dropped (checksum error), count"
vector 132 IEEE_802154_Net.slave[44].udp passedUpPk:vector(count) ETV
attr interpolationmode none
attr recordingmode vector(count)
attr source packetSentToUpper
attr title "packets passed up, count"
vector 133 IEEE_802154_Net.slave[44].udp droppedPkWrongPort:vector(count) ETV
attr interpolationmode none
attr recordingmode vector(count)
attr source packetDropReasonIsNoPortFound(packetDropped)
attr title "packets dropped (wrong port), count"
vector 134 IEEE_802154_Net.slave[44].udp droppedPkBadChecksum:vector(count) ETV
attr interpolationmode none
attr recordingmode vector(count)
attr source packetDropReasonIsIncorrectlyReceived(packetDropped)
attr title "packets dropped (checksum error), count"
vector 135 IEEE_802154_Net.slave[45].udp passedUpPk:vector(count) ETV
attr interpolationmode none
attr recordingmode vector(count)
attr source packetSentToUpper
attr title "packets passed up, count"
vector 136 IEEE_802154_Net.slave[45].udp droppedPkWrongPort:vector(count) ETV
attr interpolationmode none
attr recordingmode vector(count)
attr source packetDropReasonIsNoPortFound(packetDropped)
attr title "packets dropped (wrong port), count"
vector 137 IEEE_802154_Net.slave[45].udp droppedPkBadChecksum:vector(count) ETV
attr interpolationmode none
attr recordingmode vector(count)
attr source packetDropReasonIsIncorrectlyReceived(packetDropped)
attr title "packets dropped (checksum error), count"
vector 138 IEEE_802154_Net.slave[46].udp passedUpPk:vector(count) ETV
attr interpolationmode none
attr recordingmode vector(count)
attr source packetSentToUpper
attr title "packets passed up, count"
vector 139 IEEE_802154_Net.slave[46].udp droppedPkWrongPort:vector(count) ETV
attr interpolationmode none
attr recordingmode vector(count)
attr source packetDropReasonIsNoPortFound(packetDropped)
attr title "packets dropped (wrong port), count"
vector 140 IEEE_802154_Net.slave[46].udp droppedPkBadChecksum:vector(count) ETV
attr interpolationmode none
attr recordingmode vector(count)
attr source packetDropReasonIsIncorrectlyReceived(packetDropped)
attr title "packets dropped (checksum error), count"
vector 141 IEEE_802154_Net.slave[47].udp passedUpPk:vector(count) ETV
attr interpolationmode none
attr recordingmode vector(count)
attr source packetSentToUpper
attr title "packets passed up, count"
vector 142 IEEE_802154_Net.slave[47].udp droppedPkWrongPort:vector(count) ETV
attr interpolationmode none
attr recordingmode vector(count)
attr source packetDropReasonIsNoPortFound(packetDropped)
attr title "packets dropped (wrong port), count"
vector 143 IEEE_802154_Net.slave[47].udp droppedPkBadChecksum:vector(count) ETV
attr interpolationmode none
attr recordingmode vector(count)
attr source packetDropReasonIsIncorrectlyReceived(packetDropped)
attr title "packets dropped (checksum error), count"
vector 144 IEEE_802154_Net.slave[48].udp passedUpPk:vector(count) ETV
attr interpolationmode none
attr recordingmode vector(count)
attr source packetSentToUpper
attr title "packets passed up, count"
vector 145 IEEE_802154_Net.slave[48].udp droppedPkWrongPort:vector(count) ETV
attr interpolationmode none
attr recordingmode vector(count)
attr source packetDropReasonIsNoPortFound(packetDropped)
attr title "packets dropped (wrong port), count"
vector 146 IEEE_802154_Net.slave[48].udp droppedPkBadChecksum:vector(count) ETV
attr interpolationmode none
attr recordingmode vector(count)
attr source packetDropReasonIsIncorrectlyReceived(packetDropped)
attr title "packets dropped (checksum error), count"
vector 147 IEEE_802154_Net.slave[49].udp passedUpPk:vector(count) ETV
attr interpolationmode none
attr recordingmode vector(count)
attr source packetSentToUpper
attr title "packets passed up, count"
vector 148 IEEE_802154_Net.slave[49].udp droppedPkWrongPort:vector(count) ETV
attr interpolationmode none
attr recordingmode vector(count)
attr source packetDropReasonIsNoPortFound(packetDropped)
attr title "packets dropped (wrong port), count"
vector 149 IEEE_802154_Net.slave[49].udp droppedPkBadChecksum:vector(count) ETV
attr interpolationmode none
attr recordingmode vector(count)
attr source packetDropReasonIsIncorrectlyReceived(packetDropped)
attr title "packets dropped (checksum error), count"
vector 150 IEEE_802154_Net.slave[50].udp passedUpPk:vector(count) ETV
attr interpolationmode none
attr recordingmode vector(count)
attr source packetSentToUpper
attr title "packets passed up, count"
vector 151 IEEE_802154_Net.slave[50].udp droppedPkWrongPort:vector(count) ETV
attr interpolationmode none
attr recordingmode vector(count)
attr source packetDropReasonIsNoPortFound(packetDropped)
attr title "packets dropped (wrong port), count"
vector 152 IEEE_802154_Net.slave[50].udp droppedPkBadChecksum:vector(count) ETV
attr interpolationmode none
attr recordingmode vector(count)
attr source packetDropReasonIsIncorrectlyReceived(packetDropped)
attr title "packets dropped (checksum error), count"
vector 153 IEEE_802154_Net.slave[51].udp passedUpPk:vector(count) ETV
attr interpolationmode none
attr recordingmode vector(count)
attr source packetSentToUpper
attr title "packets passed up, count"
vector 154 IEEE_802154_Net.slave[51].udp droppedPkWrongPort:vector(count) ETV
attr interpolationmode none
attr recordingmode vector(count)
attr source packetDropReasonIsNoPortFound(packetDropped)
attr title "packets dropped (wrong port), count"
vector 155 IEEE_802154_Net.slave[51].udp droppedPkBadChecksum:vector(count) ETV
attr interpolationmode none
attr recordingmode vector(count)
attr source packetDropReasonIsIncorrectlyReceived(packetDropped)
attr title "packets dropped (checksum error), count"
vector 156 IEEE_802154_Net.slave[52].udp passedUpPk:vector(count) ETV
attr interpolationmode none
attr recordingmode vector(count)
attr source packetSentToUpper
attr title "packets passed up, count"
vector 157 IEEE_802154_Net.slave[52].udp droppedPkWrongPort:vector(count) ETV
attr interpolationmode none
attr recordingmode vector(count)
attr source packetDropReasonIsNoPortFound(packetDropped)
attr title "packets dropped (wrong port), count"
vector 158 IEEE_802154_Net.slave[52].udp droppedPkBadChecksum:vector(count) ETV
attr interpolationmode none
attr recordingmode vector(count)
attr source packetDropReasonIsIncorrectlyReceived(packetDropped)
attr title "packets dropped (checksum error), count"
vector 159 IEEE_802154_Net.slave[53].udp passedUpPk:vector(count) ETV
attr interpolationmode none
attr recordingmode vector(count)
attr source packetSentToUpper
attr title "packets passed up, count"
vector 160 IEEE_802154_Net.slave[53].udp droppedPkWrongPort:vector(count) ETV
attr interpolationmode none
attr recordingmode vector(count)
attr source packetDropReasonIsNoPortFound(packetDropped)
attr title "packets dropped (wrong port), count"
vector 161 IEEE_802154_Net.slave[53].udp droppedPkBadChecksum:vector(count) ETV
attr interpolationmode none
attr recordingmode vector(count)
attr source packetDropReasonIsIncorrectlyReceived(packetDropped)
attr title "packets dropped (checksum error), count"
vector 162 IEEE_802154_Net.slave[54].udp passedUpPk:vector(count) ETV
attr interpolationmode none
attr recordingmode vector(count)
attr source packetSentToUpper
attr title "packets passed up, count"
vector 163 IEEE_802154_Net.slave[54].udp droppedPkWrongPort:vector(count) ETV
attr interpolationmode none
attr recordingmode vector(count)
attr source packetDropReasonIsNoPortFound(packetDropped)
attr title "packets dropped (wrong port), count"
vector 164 IEEE_802154_Net.slave[54].udp droppedPkBadChecksum:vector(count) ETV
attr interpolationmode none
attr recordingmode vector(count)
attr source packetDropReasonIsIncorrectlyReceived(packetDropped)
attr title "packets dropped (checksum error), count"
vector 165 IEEE_802154_Net.slave[55].udp passedUpPk:vector(count) ETV
attr interpolationmode none
attr recordingmode vector(count)
attr source packetSentToUpper
attr title "packets passed up, count"
vector 166 IEEE_802154_Net.slave[55].udp droppedPkWrongPort:vector(count) ETV
attr interpolationmode none
attr recordingmode vector(count)
attr source packetDropReasonIsNoPortFound(packetDropped)
attr title "packets dropped (wrong port), count"
vector 167 IEEE_802154_Net.slave[55].udp droppedPkBadChecksum:vector(count) ETV
attr interpolationmode none
attr recordingmode vector(count)
attr source packetDropReasonIsIncorrectlyReceived(packetDropped)
attr title "packets dropped (checksum error), count"
vector 168 IEEE_802154_Net.slave[56].udp passedUpPk:vector(count) ETV
attr interpolationmode none
attr recordingmode vector(count)
attr source packetSentToUpper
attr title "packets passed up, count"
vector 169 IEEE_802154_Net.slave[56].udp droppedPkWrongPort:vector(count) ETV
attr interpolationmode none
attr recordingmode vector(count)
attr source packetDropReasonIsNoPortFound(packetDropped)
attr title "packets dropped (wrong port), count"
vector 170 IEEE_802154_Net.slave[56].udp droppedPkBadChecksum:vector(count) ETV
attr interpolationmode none
attr recordingmode vector(count)
attr source packetDropReasonIsIncorrectlyReceived(packetDropped)
attr title "packets dropped (checksum error), count"
vector 171 IEEE_802154_Net.slave[57].udp passedUpPk:vector(count) ETV
attr interpolationmode none
attr recordingmode vector(count)
attr source packetSentToUpper
attr title "packets passed up, count"
vector 172 IEEE_802154_Net.slave[57].udp droppedPkWrongPort:vector(count) ETV
attr interpolationmode none
attr recordingmode vector(count)
attr source packetDropReasonIsNoPortFound(packetDropped)
attr title "packets dropped (wrong port), count"
vector 173 IEEE_802154_Net.slave[57].udp droppedPkBadChecksum:vector(count) ETV
attr interpolationmode none
attr recordingmode vector(count)
attr source packetDropReasonIsIncorrectlyReceived(packetDropped)
attr title "packets dropped (checksum error), count"
vector 174 IEEE_802154_Net.slave[58].udp passedUpPk:vector(count) ETV
attr interpolationmode none
attr recordingmode vector(count)
attr source packetSentToUpper
attr title "packets passed up, count"
vector 175 IEEE_802154_Net.slave[58].udp droppedPkWrongPort:vector(count) ETV
attr interpolationmode none
attr recordingmode vector(count)
attr source packetDropReasonIsNoPortFound(packetDropped)
attr title "packets dropped (wrong port), count"
vector 176 IEEE_802154_Net.slave[58].udp droppedPkBadChecksum:vector(count) ETV
attr interpolationmode none
attr recordingmode vector(count)
attr source packetDropReasonIsIncorrectlyReceived(packetDropped)
attr title "packets dropped (checksum error), count"
vector 177 IEEE_802154_Net.slave[59].udp passedUpPk:vector(count) ETV
attr interpolationmode none
attr recordingmode vector(count)
attr source packetSentToUpper
attr title "packets passed up, count"
vector 178 IEEE_802154_Net.slave[59].udp droppedPkWrongPort:vector(count) ETV
attr interpolationmode none
attr recordingmode vector(count)
attr source packetDropReasonIsNoPortFound(packetDropped)
attr title "packets dropped (wrong port), count"
vector 179 IEEE_802154_Net.slave[59].udp droppedPkBadChecksum:vector(count) ETV
attr interpolationmode none
attr recordingmode vector(count)
attr source packetDropReasonIsIncorrectlyReceived(packetDropped)
attr title "packets dropped (checksum error), count"
vector 180 IEEE_802154_Net.slave[60].udp passedUpPk:vector(count) ETV
attr interpolationmode none
attr recordingmode vector(count)
attr source packetSentToUpper
attr title "packets passed up, count"
vector 181 IEEE_802154_Net.slave[60].udp droppedPkWrongPort:vector(count) ETV
attr interpolationmode none
attr recordingmode vector(count)
attr source packetDropReasonIsNoPortFound(packetDropped)
attr title "packets dropped (wrong port), count"
vector 182 IEEE_802154_Net.slave[60].udp droppedPkBadChecksum:vector(count) ETV
attr interpolationmode none
attr recordingmode vector(count)
attr source packetDropReasonIsIncorrectlyReceived(packetDropped)
attr title "packets dropped (checksum error), count"
vector 183 IEEE_802154_Net.slave[61].udp passedUpPk:vector(count) ETV
attr interpolationmode none
attr recordingmode vector(count)
attr source packetSentToUpper
attr title "packets passed up, count"
vector 184 IEEE_802154_Net.slave[61].udp droppedPkWrongPort:vector(count) ETV
attr interpolationmode none
attr recordingmode vector(count)
attr source packetDropReasonIsNoPortFound(packetDropped)
attr title "packets dropped (wrong port), count"
vector 185 IEEE_802154_Net.slave[61].udp droppedPkBadChecksum:vector(count) ETV
attr interpolationmode none
attr recordingmode vector(count)
attr source packetDropReasonIsIncorrectlyReceived(packetDropped)
attr title "packets dropped (checksum error), count"
vector 186 IEEE_802154_Net.slave[62].udp passedUpPk:vector(count) ETV
attr interpolationmode none
attr recordingmode vector(count)
attr source packetSentToUpper
attr title "packets passed up, count"
vector 187 IEEE_802154_Net.slave[62].udp droppedPkWrongPort:vector(count) ETV
attr interpolationmode none
attr recordingmode vector(count)
attr source packetDropReasonIsNoPortFound(packetDropped)
attr title "packets dropped (wrong port), count"
vector 188 IEEE_802154_Net.slave[62].udp droppedPkBadChecksum:vector(count) ETV
attr interpolationmode none
attr recordingmode vector(count)
attr source packetDropReasonIsIncorrectlyReceived(packetDropped)
attr title "packets dropped (checksum error), count"
vector 189 IEEE_802154_Net.slave[63].udp passedUpPk:vector(count) ETV
attr interpolationmode none
attr recordingmode vector(count)
attr source packetSentToUpper
attr title "packets passed up, count"
vector 190 IEEE_802154_Net.slave[63].udp droppedPkWrongPort:vector(count) ETV
attr interpolationmode none
attr recordingmode vector(count)
attr source packetDropReasonIsNoPortFound(packetDropped)
attr title "packets dropped (wrong port), count"
vector 191 IEEE_802154_Net.slave[63].udp droppedPkBadChecksum:vector(count) ETV
attr interpolationmode none
attr recordingmode vector(count)
attr source packetDropReasonIsIncorrectlyReceived(packetDropped)
attr title "packets dropped (checksum error), count"
vector 192 IEEE_802154_Net.slave[64].udp passedUpPk:vector(count) ETV
attr interpolationmode none
attr recordingmode vector(count)
attr source packetSentToUpper
attr title "packets passed up, count"
vector 193 IEEE_802154_Net.slave[64].udp droppedPkWrongPort:vector(count) ETV
attr interpolationmode none
attr recordingmode vector(count)
attr source packetDropReasonIsNoPortFound(packetDropped)
attr title "packets dropped (wrong port), count"
vector 194 IEEE_802154_Net.slave[64].udp droppedPkBadChecksum:vector(count) ETV
attr interpolationmode none
attr recordingmode vector(count)
attr source packetDropReasonIsIncorrectlyReceived(packetDropped)
attr title "packets dropped (checksum error), count"
vector 195 IEEE_802154_Net.master.udp passedUpPk:vector(count) ETV
attr interpolationmode none
attr recordingmode vector(count)
attr source packetSentToUpper
attr title "packets passed up, count"
vector 196 IEEE_802154_Net.master.udp droppedPkWrongPort:vector(count) ETV
attr interpolationmode none
attr recordingmode vector(count)
attr source packetDropReasonIsNoPortFound(packetDropped)
attr title "packets dropped (wrong port), count"
vector 197 IEEE_802154_Net.master.udp droppedPkBadChecksum:vector(count) ETV
attr interpolationmode none
attr recordingmode vector(count)
attr source packetDropReasonIsIncorrectlyReceived(packetDropped)
attr title "packets dropped (checksum error), count"
vector 198 IEEE_802154_Net.slave[0].wlan[0].radio radioMode:vector ETV
attr interpolationmode sample-hold
attr recordingmode vector
attr source radioModeChanged
attr title "Radio mode"
vector 199 IEEE_802154_Net.slave[1].wlan[0].radio radioMode:vector ETV
attr interpolationmode sample-hold
attr recordingmode vector
attr source radioModeChanged
attr title "Radio mode"
vector 200 IEEE_802154_Net.slave[2].wlan[0].radio radioMode:vector ETV
attr interpolationmode sample-hold
attr recordingmode vector
attr source radioModeChanged
attr title "Radio mode"
vector 201 IEEE_802154_Net.slave[3].wlan[0].radio radioMode:vector ETV
attr interpolationmode sample-hold
attr recordingmode vector
attr source radioModeChanged
attr title "Radio mode"
vector 202 IEEE_802154_Net.slave[4].wlan[0].radio radioMode:vector ETV
attr interpolationmode sample-hold
attr recordingmode vector
attr source radioModeChanged
attr title "Radio mode"
vector 203 IEEE_802154_Net.slave[5].wlan[0].radio radioMode:vector ETV
attr interpolationmode sample-hold
attr recordingmode vector
attr source radioModeChanged
attr title "Radio mode"
vector 204 IEEE_802154_Net.slave[6].wlan[0].radio radioMode:vector ETV
attr interpolationmode sample-hold
attr recordingmode vector
attr source radioModeChanged
attr title "Radio mode"
vector 205 IEEE_802154_Net.slave[7].wlan[0].radio radioMode:vector ETV
attr interpolationmode sample-hold
attr recordingmode vector
attr source radioModeChanged
attr title "Radio mode"
vector 206 IEEE_802154_Net.slave[8].wlan[0].radio radioMode:vector ETV
attr interpolationmode sample-hold
attr recordingmode vector
attr source radioModeChanged
attr title "Radio mode"
vector 207 IEEE_802154_Net.slave[9].wlan[0].radio radioMode:vector ETV
attr interpolationmode sample-hold
attr recordingmode vector
attr source radioModeChanged
attr title "Radio mode"
vector 208 IEEE_802154_Net.slave[10].wlan[0].radio radioMode:vector ETV
attr interpolationmode sample-hold
attr recordingmode vector
attr source radioModeChanged
attr title "Radio mode"
vector 209 IEEE_802154_Net.slave[11].wlan[0].radio radioMode:vector ETV
attr interpolationmode sample-hold
attr recordingmode vector
attr source radioModeChanged
attr title "Radio mode"
vector 210 IEEE_802154_Net.slave[12].wlan[0].radio radioMode:vector ETV
attr interpolationmode sample-hold
attr recordingmode vector
attr source radioModeChanged
attr title "Radio mode"
vector 211 IEEE_802154_Net.slave[13].wlan[0].radio radioMode:vector ETV
attr interpolationmode sample-hold
attr recordingmode vector
attr source radioModeChanged
attr title "Radio mode"
vector 212 IEEE_802154_Net.slave[14].wlan[0].radio radioMode:vector ETV
attr interpolationmode sample-hold
attr recordingmode vector
attr source radioModeChanged
attr title "Radio mode"
vector 213 IEEE_802154_Net.slave[15].wlan[0].radio radioMode:vector ETV
attr interpolationmode sample-hold
attr recordingmode vector
attr source radioModeChanged
attr title "Radio mode"
vector 214 IEEE_802154_Net.slave[16].wlan[0].radio radioMode:vector ETV
attr interpolationmode sample-hold
attr recordingmode vector
attr source radioModeChanged
attr title "Radio mode"
vector 215 IEEE_802154_Net.slave[17].wlan[0].radio radioMode:vector ETV
attr interpolationmode sample-hold
attr recordingmode vector
attr source radioModeChanged
attr title "Radio mode"
vector 216 IEEE_802154_Net.slave[18].wlan[0].radio radioMode:vector ETV
attr interpolationmode sample-hold
attr recordingmode vector
attr source radioModeChanged
attr title "Radio mode"
vector 217 IEEE_802154_Net.slave[19].wlan[0].radio radioMode:vector ETV
attr interpolationmode sample-hold
attr recordingmode vector
attr source radioModeChanged
attr title "Radio mode"
vector 218 IEEE_802154_Net.slave[20].wlan[0].radio radioMode:vector ETV
attr interpolationmode sample-hold
attr recordingmode vector
attr source radioModeChanged
attr title "Radio mode"
vector 219 IEEE_802154_Net.slave[21].wlan[0].radio radioMode:vector ETV
attr interpolationmode sample-hold
attr recordingmode vector
attr source radioModeChanged
attr title "Radio mode"
vector 220 IEEE_802154_Net.slave[22].wlan[0].radio radioMode:vector ETV
attr interpolationmode sample-hold
attr recordingmode vector
attr source radioModeChanged
attr title "Radio mode"
vector 221 IEEE_802154_Net.slave[23].wlan[0].radio radioMode:vector ETV
attr interpolationmode sample-hold
attr recordingmode vector
attr source radioModeChanged
attr title "Radio mode"
vector 222 IEEE_802154_Net.slave[24].wlan[0].radio radioMode:vector ETV
attr interpolationmode sample-hold
attr recordingmode vector
attr source radioModeChanged
attr title "Radio mode"
vector 223 IEEE_802154_Net.slave[25].wlan[0].radio radioMode:vector ETV
attr interpolationmode sample-hold
attr recordingmode vector
attr source radioModeChanged
attr title "Radio mode"
vector 224 IEEE_802154_Net.slave[26].wlan[0].radio radioMode:vector ETV
attr interpolationmode sample-hold
attr recordingmode vector
attr source radioModeChanged
attr title "Radio mode"
vector 225 IEEE_802154_Net.slave[27].wlan[0].radio radioMode:vector ETV
attr interpolationmode sample-hold
attr recordingmode vector
attr source radioModeChanged
attr title "Radio mode"
vector 226 IEEE_802154_Net.slave[28].wlan[0].radio radioMode:vector ETV
attr interpolationmode sample-hold
attr recordingmode vector
attr source radioModeChanged
attr title "Radio mode"
vector 227 IEEE_802154_Net.slave[29].wlan[0].radio radioMode:vector ETV
attr interpolationmode sample-hold
attr recordingmode vector
attr source radioModeChanged
attr title "Radio mode"
vector 228 IEEE_802154_Net.slave[30].wlan[0].radio radioMode:vector ETV
attr interpolationmode sample-hold
attr recordingmode vector
attr source radioModeChanged
attr title "Radio mode"
vector 229 IEEE_802154_Net.slave[31].wlan[0].radio radioMode:vector ETV
attr interpolationmode sample-hold
attr recordingmode vector
attr source radioModeChanged
attr title "Radio mode"
vector 230 IEEE_802154_Net.slave[32].wlan[0].radio radioMode:vector ETV
attr interpolationmode sample-hold
attr recordingmode vector
attr source radioModeChanged
attr title "Radio mode"
vector 231 IEEE_802154_Net.slave[33].wlan[0].radio radioMode:vector ETV
attr interpolationmode sample-hold
attr recordingmode vector
attr source radioModeChanged
attr title "Radio mode"
vector 232 IEEE_802154_Net.slave[34].wlan[0].radio radioMode:vector ETV
attr interpolationmode sample-hold
attr recordingmode vector
attr source radioModeChanged
attr title "Radio mode"
vector 233 IEEE_802154_Net.slave[35].wlan[0].radio radioMode:vector ETV
attr interpolationmode sample-hold
attr recordingmode vector
attr source radioModeChanged
attr title "Radio mode"
vector 234 IEEE_802154_Net.slave[36].wlan[0].radio radioMode:vector ETV
attr interpolationmode sample-hold
attr recordingmode vector
attr source radioModeChanged
attr title "Radio mode"
vector 235 IEEE_802154_Net.slave[37].wlan[0].radio radioMode:vector ETV
attr interpolationmode sample-hold
attr recordingmode vector
attr source radioModeChanged
attr title "Radio mode"
vector 236 IEEE_802154_Net.slave[38].wlan[0].radio radioMode:vector ETV
attr interpolationmode sample-hold
attr recordingmode vector
attr source radioModeChanged
attr title "Radio mode"
vector 237 IEEE_802154_Net.slave[39].wlan[0].radio radioMode:vector ETV
attr interpolationmode sample-hold
attr recordingmode vector
attr source radioModeChanged
attr title "Radio mode"
vector 238 IEEE_802154_Net.slave[40].wlan[0].radio radioMode:vector ETV
attr interpolationmode sample-hold
attr recordingmode vector
attr source radioModeChanged
attr title "Radio mode"
vector 239 IEEE_802154_Net.slave[41].wlan[0].radio radioMode:vector ETV
attr interpolationmode sample-hold
attr recordingmode vector
attr source radioModeChanged
attr title "Radio mode"
vector 240 IEEE_802154_Net.slave[42].wlan[0].radio radioMode:vector ETV
attr interpolationmode sample-hold
attr recordingmode vector
attr source radioModeChanged
attr title "Radio mode"
vector 241 IEEE_802154_Net.slave[43].wlan[0].radio radioMode:vector ETV
attr interpolationmode sample-hold
attr recordingmode vector
attr source radioModeChanged
attr title "Radio mode"
vector 242 IEEE_802154_Net.slave[44].wlan[0].radio radioMode:vector ETV
attr interpolationmode sample-hold
attr recordingmode vector
attr source radioModeChanged
attr title "Radio mode"
vector 243 IEEE_802154_Net.slave[45].wlan[0].radio radioMode:vector ETV
attr interpolationmode sample-hold
attr recordingmode vector
attr source radioModeChanged
attr title "Radio mode"
vector 244 IEEE_802154_Net.slave[46].wlan[0].radio radioMode:vector ETV
attr interpolationmode sample-hold
attr recordingmode vector
attr source radioModeChanged
attr title "Radio mode"
vector 245 IEEE_802154_Net.slave[47].wlan[0].radio radioMode:vector ETV
attr interpolationmode sample-hold
attr recordingmode vector
attr source radioModeChanged
attr title "Radio mode"
vector 246 IEEE_802154_Net.slave[48].wlan[0].radio radioMode:vector ETV
attr interpolationmode sample-hold
attr recordingmode vector
attr source radioModeChanged
attr title "Radio mode"
vector 247 IEEE_802154_Net.slave[49].wlan[0].radio radioMode:vector ETV
attr interpolationmode sample-hold
attr recordingmode vector
attr source radioModeChanged
attr title "Radio mode"
vector 248 IEEE_802154_Net.slave[50].wlan[0].radio radioMode:vector ETV
attr interpolationmode sample-hold
attr recordingmode vector
attr source radioModeChanged
attr title "Radio mode"
vector 249 IEEE_802154_Net.slave[51].wlan[0].radio radioMode:vector ETV
attr interpolationmode sample-hold
attr recordingmode vector
attr source radioModeChanged
attr title "Radio mode"
vector 250 IEEE_802154_Net.slave[52].wlan[0].radio radioMode:vector ETV
attr interpolationmode sample-hold
attr recordingmode vector
attr source radioModeChanged
attr title "Radio mode"
vector 251 IEEE_802154_Net.slave[53].wlan[0].radio radioMode:vector ETV
attr interpolationmode sample-hold
attr recordingmode vector
attr source radioModeChanged
attr title "Radio mode"
vector 252 IEEE_802154_Net.slave[54].wlan[0].radio radioMode:vector ETV
attr interpolationmode sample-hold
attr recordingmode vector
attr source radioModeChanged
attr title "Radio mode"
vector 253 IEEE_802154_Net.slave[55].wlan[0].radio radioMode:vector ETV
attr interpolationmode sample-hold
attr recordingmode vector
attr source radioModeChanged
attr title "Radio mode"
vector 254 IEEE_802154_Net.slave[56].wlan[0].radio radioMode:vector ETV
attr interpolationmode sample-hold
attr recordingmode vector
attr source radioModeChanged
attr title "Radio mode"
vector 255 IEEE_802154_Net.slave[57].wlan[0].radio radioMode:vector ETV
attr interpolationmode sample-hold
attr recordingmode vector
attr source radioModeChanged
attr title "Radio mode"
vector 256 IEEE_802154_Net.slave[58].wlan[0].radio radioMode:vector ETV
attr interpolationmode sample-hold
attr recordingmode vector
attr source radioModeChanged
attr title "Radio mode"
vector 257 IEEE_802154_Net.slave[59].wlan[0].radio radioMode:vector ETV
attr interpolationmode sample-hold
attr recordingmode vector
attr source radioModeChanged
attr title "Radio mode"
vector 258 IEEE_802154_Net.slave[60].wlan[0].radio radioMode:vector ETV
attr interpolationmode sample-hold
attr recordingmode vector
attr source radioModeChanged
attr title "Radio mode"
vector 259 IEEE_802154_Net.slave[61].wlan[0].radio radioMode:vector ETV
attr interpolationmode sample-hold
attr recordingmode vector
attr source radioModeChanged
attr title "Radio mode"
vector 260 IEEE_802154_Net.slave[62].wlan[0].radio radioMode:vector ETV
attr interpolationmode sample-hold
attr recordingmode vector
attr source radioModeChanged
attr title "Radio mode"
vector 261 IEEE_802154_Net.slave[63].wlan[0].radio radioMode:vector ETV
attr interpolationmode sample-hold
attr recordingmode vector
attr source radioModeChanged
attr title "Radio mode"
vector 262 IEEE_802154_Net.slave[64].wlan[0].radio radioMode:vector ETV
attr interpolationmode sample-hold
attr recordingmode vector
attr source radioModeChanged
attr title "Radio mode"
vector 263 IEEE_802154_Net.master.wlan[0].radio radioMode:vector ETV
attr interpolationmode sample-hold
attr recordingmode vector
attr source radioModeChanged
attr title "Radio mode"
vector 264 IEEE_802154_Net.slave[0].wlan[0].radio receptionState:vector ETV
attr interpolationmode sample-hold
attr recordingmode vector
attr source receptionStateChanged
attr title "Radio reception state"
vector 265 IEEE_802154_Net.slave[1].wlan[0].radio receptionState:vector ETV
attr interpolationmode sample-hold
attr recordingmode vector
attr source receptionStateChanged
attr title "Radio reception state"
vector 266 IEEE_802154_Net.slave[2].wlan[0].radio receptionState:vector ETV
attr interpolationmode sample-hold
attr recordingmode vector
attr source receptionStateChanged
attr title "Radio reception state"
vector 267 IEEE_802154_Net.slave[3].wlan[0].radio receptionState:vector ETV
attr interpolationmode sample-hold
attr recordingmode vector
attr source receptionStateChanged
attr title "Radio reception state"
vector 268 IEEE_802154_Net.slave[4].wlan[0].radio receptionState:vector ETV
attr interpolationmode sample-hold
attr recordingmode vector
attr source receptionStateChanged
attr title "Radio reception state"
vector 269 IEEE_802154_Net.slave[5].wlan[0].radio receptionState:vector ETV
attr interpolationmode sample-hold
attr recordingmode vector
attr source receptionStateChanged
attr title "Radio reception state"
vector 270 IEEE_802154_Net.slave[6].wlan[0].radio receptionState:vector ETV
attr interpolationmode sample-hold
attr recordingmode vector
attr source receptionStateChanged
attr title "Radio reception state"
vector 271 IEEE_802154_Net.slave[7].wlan[0].radio receptionState:vector ETV
attr interpolationmode sample-hold
attr recordingmode vector
attr source receptionStateChanged
attr title "Radio reception state"
vector 272 IEEE_802154_Net.slave[8].wlan[0].radio receptionState:vector ETV
attr interpolationmode sample-hold
attr recordingmode vector
attr source receptionStateChanged
attr title "Radio reception state"
vector 273 IEEE_802154_Net.slave[9].wlan[0].radio receptionState:vector ETV
attr interpolationmode sample-hold
attr recordingmode vector
attr source receptionStateChanged
attr title "Radio reception state"
vector 274 IEEE_802154_Net.slave[10].wlan[0].radio receptionState:vector ETV
attr interpolationmode sample-hold
attr recordingmode vector
attr source receptionStateChanged
attr title "Radio reception state"
vector 275 IEEE_802154_Net.slave[11].wlan[0].radio receptionState:vector ETV
attr interpolationmode sample-hold
attr recordingmode vector
attr source receptionStateChanged
attr title "Radio reception state"
vector 276 IEEE_802154_Net.slave[12].wlan[0].radio receptionState:vector ETV
attr interpolationmode sample-hold
attr recordingmode vector
attr source receptionStateChanged
attr title "Radio reception state"
vector 277 IEEE_802154_Net.slave[13].wlan[0].radio receptionState:vector ETV
attr interpolationmode sample-hold
attr recordingmode vector
attr source receptionStateChanged
attr title "Radio reception state"
vector 278 IEEE_802154_Net.slave[14].wlan[0].radio receptionState:vector ETV
attr interpolationmode sample-hold
attr recordingmode vector
attr source receptionStateChanged
attr title "Radio reception state"
vector 279 IEEE_802154_Net.slave[15].wlan[0].radio receptionState:vector ETV
attr interpolationmode sample-hold
attr recordingmode vector
attr source receptionStateChanged
attr title "Radio reception state"
vector 280 IEEE_802154_Net.slave[16].wlan[0].radio receptionState:vector ETV
attr interpolationmode sample-hold
attr recordingmode vector
attr source receptionStateChanged
attr title "Radio reception state"
vector 281 IEEE_802154_Net.slave[17].wlan[0].radio receptionState:vector ETV
attr interpolationmode sample-hold
attr recordingmode vector
attr source receptionStateChanged
attr title "Radio reception state"
vector 282 IEEE_802154_Net.slave[18].wlan[0].radio receptionState:vector ETV
attr interpolationmode sample-hold
attr recordingmode vector
attr source receptionStateChanged
attr title "Radio reception state"
vector 283 IEEE_802154_Net.slave[19].wlan[0].radio receptionState:vector ETV
attr interpolationmode sample-hold
attr recordingmode vector
attr source receptionStateChanged
attr title "Radio reception state"
vector 284 IEEE_802154_Net.slave[20].wlan[0].radio receptionState:vector ETV
attr interpolationmode sample-hold
attr recordingmode vector
attr source receptionStateChanged
attr title "Radio reception state"
vector 285 IEEE_802154_Net.slave[21].wlan[0].radio receptionState:vector ETV
attr interpolationmode sample-hold
attr recordingmode vector
attr source receptionStateChanged
attr title "Radio reception state"
vector 286 IEEE_802154_Net.slave[22].wlan[0].radio receptionState:vector ETV
attr interpolationmode sample-hold
attr recordingmode vector
attr source receptionStateChanged
attr title "Radio reception state"
vector 287 IEEE_802154_Net.slave[23].wlan[0].radio receptionState:vector ETV
attr interpolationmode sample-hold
attr recordingmode vector
attr source receptionStateChanged
attr title "Radio reception state"
vector 288 IEEE_802154_Net.slave[24].wlan[0].radio receptionState:vector ETV
attr interpolationmode sample-hold
attr recordingmode vector
attr source receptionStateChanged
attr title "Radio reception state"
vector 289 IEEE_802154_Net.slave[25].wlan[0].radio receptionState:vector ETV
attr interpolationmode sample-hold
attr recordingmode vector
attr source receptionStateChanged
attr title "Radio reception state"
vector 290 IEEE_802154_Net.slave[26].wlan[0].radio receptionState:vector ETV
attr interpolationmode sample-hold
attr recordingmode vector
attr source receptionStateChanged
attr title "Radio reception state"
vector 291 IEEE_802154_Net.slave[27].wlan[0].radio receptionState:vector ETV
attr interpolationmode sample-hold
attr recordingmode vector
attr source receptionStateChanged
attr title "Radio reception state"
vector 292 IEEE_802154_Net.slave[28].wlan[0].radio receptionState:vector ETV
attr interpolationmode sample-hold
attr recordingmode vector
attr source receptionStateChanged
attr title "Radio reception state"
vector 293 IEEE_802154_Net.slave[29].wlan[0].radio receptionState:vector ETV
attr interpolationmode sample-hold
attr recordingmode vector
attr source receptionStateChanged
attr title "Radio reception state"
vector 294 IEEE_802154_Net.slave[30].wlan[0].radio receptionState:vector ETV
attr interpolationmode sample-hold
attr recordingmode vector
attr source receptionStateChanged
attr title "Radio reception state"
vector 295 IEEE_802154_Net.slave[31].wlan[0].radio receptionState:vector ETV
attr interpolationmode sample-hold
attr recordingmode vector
attr source receptionStateChanged
attr title "Radio reception state"
vector 296 IEEE_802154_Net.slave[32].wlan[0].radio receptionState:vector ETV
attr interpolationmode sample-hold
attr recordingmode vector
attr source receptionStateChanged
attr title "Radio reception state"
vector 297 IEEE_802154_Net.slave[33].wlan[0].radio receptionState:vector ETV
attr interpolationmode sample-hold
attr recordingmode vector
attr source receptionStateChanged
attr title "Radio reception state"
vector 298 IEEE_802154_Net.slave[34].wlan[0].radio receptionState:vector ETV
attr interpolationmode sample-hold
attr recordingmode vector
attr source receptionStateChanged
attr title "Radio reception state"
vector 299 IEEE_802154_Net.slave[35].wlan[0].radio receptionState:vector ETV
attr interpolationmode sample-hold
attr recordingmode vector
attr source receptionStateChanged
attr title "Radio reception state"
vector 300 IEEE_802154_Net.slave[36].wlan[0].radio receptionState:vector ETV
attr interpolationmode sample-hold
attr recordingmode vector
attr source receptionStateChanged
attr title "Radio reception state"
vector 301 IEEE_802154_Net.slave[37].wlan[0].radio receptionState:vector ETV
attr interpolationmode sample-hold
attr recordingmode vector
attr source receptionStateChanged
attr title "Radio reception state"
vector 302 IEEE_802154_Net.slave[38].wlan[0].radio receptionState:vector ETV
attr interpolationmode sample-hold
attr recordingmode vector
attr source receptionStateChanged
attr title "Radio reception state"
vector 303 IEEE_802154_Net.slave[39].wlan[0].radio receptionState:vector ETV
attr interpolationmode sample-hold
attr recordingmode vector
attr source receptionStateChanged
attr title "Radio reception state"
vector 304 IEEE_802154_Net.slave[40].wlan[0].radio receptionState:vector ETV
attr interpolationmode sample-hold
attr recordingmode vector
attr source receptionStateChanged
attr title "Radio reception state"
vector 305 IEEE_802154_Net.slave[41].wlan[0].radio receptionState:vector ETV
attr interpolationmode sample-hold
attr recordingmode vector
attr source receptionStateChanged
attr title "Radio reception state"
vector 306 IEEE_802154_Net.slave[42].wlan[0].radio receptionState:vector ETV
attr interpolationmode sample-hold
attr recordingmode vector
attr source receptionStateChanged
attr title "Radio reception state"
vector 307 IEEE_802154_Net.slave[43].wlan[0].radio receptionState:vector ETV
attr interpolationmode sample-hold
attr recordingmode vector
attr source receptionStateChanged
attr title "Radio reception state"
vector 308 IEEE_802154_Net.slave[44].wlan[0].radio receptionState:vector ETV
attr interpolationmode sample-hold
attr recordingmode vector
attr source receptionStateChanged
attr title "Radio reception state"
vector 309 IEEE_802154_Net.slave[45].wlan[0].radio receptionState:vector ETV
attr interpolationmode sample-hold
attr recordingmode vector
attr source receptionStateChanged
attr title "Radio reception state"
vector 310 IEEE_802154_Net.slave[46].wlan[0].radio receptionState:vector ETV
attr interpolationmode sample-hold
attr recordingmode vector
attr source receptionStateChanged
attr title "Radio reception state"
vector 311 IEEE_802154_Net.slave[47].wlan[0].radio receptionState:vector ETV
attr interpolationmode sample-hold
attr recordingmode vector
attr source receptionStateChanged
attr title "Radio reception state"
vector 312 IEEE_802154_Net.slave[48].wlan[0].radio receptionState:vector ETV
attr interpolationmode sample-hold
attr recordingmode vector
attr source receptionStateChanged
attr title "Radio reception state"
vector 313 IEEE_802154_Net.slave[49].wlan[0].radio receptionState:vector ETV
attr interpolationmode sample-hold
attr recordingmode vector
attr source receptionStateChanged
attr title "Radio reception state"
vector 314 IEEE_802154_Net.slave[50].wlan[0].radio receptionState:vector ETV
attr interpolationmode sample-hold
attr recordingmode vector
attr source receptionStateChanged
attr title "Radio reception state"
vector 315 IEEE_802154_Net.slave[51].wlan[0].radio receptionState:vector ETV
attr interpolationmode sample-hold
attr recordingmode vector
attr source receptionStateChanged
attr title "Radio reception state"
vector 316 IEEE_802154_Net.slave[52].wlan[0].radio receptionState:vector ETV
attr interpolationmode sample-hold
attr recordingmode vector
attr source receptionStateChanged
attr title "Radio reception state"
vector 317 IEEE_802154_Net.slave[53].wlan[0].radio receptionState:vector ETV
attr interpolationmode sample-hold
attr recordingmode vector
attr source receptionStateChanged
attr title "Radio reception state"
vector 318 IEEE_802154_Net.slave[54].wlan[0].radio receptionState:vector ETV
attr interpolationmode sample-hold
attr recordingmode vector
attr source receptionStateChanged
attr title "Radio reception state"
vector 319 IEEE_802154_Net.slave[55].wlan[0].radio receptionState:vector ETV
attr interpolationmode sample-hold
attr recordingmode vector
attr source receptionStateChanged
attr title "Radio reception state"
vector 320 IEEE_802154_Net.slave[56].wlan[0].radio receptionState:vector ETV
attr interpolationmode sample-hold
attr recordingmode vector
attr source receptionStateChanged
attr title "Radio reception state"
vector 321 IEEE_802154_Net.slave[57].wlan[0].radio receptionState:vector ETV
attr interpolationmode sample-hold
attr recordingmode vector
attr source receptionStateChanged
attr title "Radio reception state"
vector 322 IEEE_802154_Net.slave[58].wlan[0].radio receptionState:vector ETV
attr interpolationmode sample-hold
attr recordingmode vector
attr source receptionStateChanged
attr title "Radio reception state"
vector 323 IEEE_802154_Net.slave[59].wlan[0].radio receptionState:vector ETV
attr interpolationmode sample-hold
attr recordingmode vector
attr source receptionStateChanged
attr title "Radio reception state"
vector 324 IEEE_802154_Net.slave[60].wlan[0].radio receptionState:vector ETV
attr interpolationmode sample-hold
attr recordingmode vector
attr source receptionStateChanged
attr title "Radio reception state"
vector 325 IEEE_802154_Net.slave[61].wlan[0].radio receptionState:vector ETV
attr interpolationmode sample-hold
attr recordingmode vector
attr source receptionStateChanged
attr title "Radio reception state"
vector 326 IEEE_802154_Net.slave[62].wlan[0].radio receptionState:vector ETV
attr interpolationmode sample-hold
attr recordingmode vector
attr source receptionStateChanged
attr title "Radio reception state"
vector 327 IEEE_802154_Net.slave[63].wlan[0].radio receptionState:vector ETV
attr interpolationmode sample-hold
attr recordingmode vector
attr source receptionStateChanged
attr title "Radio reception state"
vector 328 IEEE_802154_Net.slave[64].wlan[0].radio receptionState:vector ETV
attr interpolationmode sample-hold
attr recordingmode vector
attr source receptionStateChanged
attr title "Radio reception state"
vector 329 IEEE_802154_Net.master.wlan[0].radio receptionState:vector ETV
attr interpolationmode sample-hold
attr recordingmode vector
attr source receptionStateChanged
attr title "Radio reception state"
vector 330 IEEE_802154_Net.slave[0].app[0] packetSent:vector(packetBytes) ETV
attr interpolationmode none
attr recordingmode vector(packetBytes)
attr source packetSent
attr title "packets sent, packetBytes"
vector 331 IEEE_802154_Net.slave[1].app[0] packetSent:vector(packetBytes) ETV
attr interpolationmode none
attr recordingmode vector(packetBytes)
attr source packetSent
attr title "packets sent, packetBytes"
vector 332 IEEE_802154_Net.slave[2].app[0] packetSent:vector(packetBytes) ETV
attr interpolationmode none
attr recordingmode vector(packetBytes)
attr source packetSent
attr title "packets sent, packetBytes"
vector 333 IEEE_802154_Net.slave[3].app[0] packetSent:vector(packetBytes) ETV
attr interpolationmode none
attr recordingmode vector(packetBytes)
attr source packetSent
attr title "packets sent, packetBytes"
vector 334 IEEE_802154_Net.slave[4].app[0] packetSent:vector(packetBytes) ETV
attr interpolationmode none
attr recordingmode vector(packetBytes)
attr source packetSent
attr title "packets sent, packetBytes"
vector 335 IEEE_802154_Net.slave[5].app[0] packetSent:vector(packetBytes) ETV
attr interpolationmode none
attr recordingmode vector(packetBytes)
attr source packetSent
attr title "packets sent, packetBytes"
vector 336 IEEE_802154_Net.slave[6].app[0] packetSent:vector(packetBytes) ETV
attr interpolationmode none
attr recordingmode vector(packetBytes)
attr source packetSent
attr title "packets sent, packetBytes"
vector 337 IEEE_802154_Net.slave[7].app[0] packetSent:vector(packetBytes) ETV
attr interpolationmode none
attr recordingmode vector(packetBytes)
attr source packetSent
attr title "packets sent, packetBytes"
vector 338 IEEE_802154_Net.slave[8].app[0] packetSent:vector(packetBytes) ETV
attr interpolationmode none
attr recordingmode vector(packetBytes)
attr source packetSent
attr title "packets sent, packetBytes"
vector 339 IEEE_802154_Net.slave[9].app[0] packetSent:vector(packetBytes) ETV
attr interpolationmode none
attr recordingmode vector(packetBytes)
attr source packetSent
attr title "packets sent, packetBytes"
vector 340 IEEE_802154_Net.slave[10].app[0] packetSent:vector(packetBytes) ETV
attr interpolationmode none
attr recordingmode vector(packetBytes)
attr source packetSent
attr title "packets sent, packetBytes"
vector 341 IEEE_802154_Net.slave[11].app[0] packetSent:vector(packetBytes) ETV
attr interpolationmode none
attr recordingmode vector(packetBytes)
attr source packetSent
attr title "packets sent, packetBytes"
vector 342 IEEE_802154_Net.slave[12].app[0] packetSent:vector(packetBytes) ETV
attr interpolationmode none
attr recordingmode vector(packetBytes)
attr source packetSent
attr title "packets sent, packetBytes"
vector 343 IEEE_802154_Net.slave[13].app[0] packetSent:vector(packetBytes) ETV
attr interpolationmode none
attr recordingmode vector(packetBytes)
attr source packetSent
attr title "packets sent, packetBytes"
[...]
vector 382 IEEE_802154_Net.slave[52].app[0] packetSent:vector(packetBytes) ETV
attr interpolationmode none
attr recordingmode vector(packetBytes)
attr source packetSent
attr title "packets sent, packetBytes"
vector 383 IEEE_802154_Net.slave[53].app[0] packetSent:vector(packetBytes) ETV
attr interpolationmode none
attr recordingmode vector(packetBytes)
attr source packetSent
attr title "packets sent, packetBytes"
vector 384 IEEE_802154_Net.slave[54].app[0] packetSent:vector(packetBytes) ETV
attr interpolationmode none
attr recordingmode vector(packetBytes)
attr source packetSent
attr title "packets sent, packetBytes"
vector 385 IEEE_802154_Net.slave[55].app[0] packetSent:vector(packetBytes) ETV
attr interpolationmode none
attr recordingmode vector(packetBytes)
attr source packetSent
attr title "packets sent, packetBytes"
vector 386 IEEE_802154_Net.slave[56].app[0] packetSent:vector(packetBytes) ETV
attr interpolationmode none
attr recordingmode vector(packetBytes)
attr source packetSent
attr title "packets sent, packetBytes"
vector 387 IEEE_802154_Net.slave[57].app[0] packetSent:vector(packetBytes) ETV
attr interpolationmode none
attr recordingmode vector(packetBytes)
attr source packetSent
attr title "packets sent, packetBytes"
vector 388 IEEE_802154_Net.slave[58].app[0] packetSent:vector(packetBytes) ETV
attr interpolationmode none
attr recordingmode vector(packetBytes)
attr source packetSent
attr title "packets sent, packetBytes"
vector 389 IEEE_802154_Net.slave[59].app[0] packetSent:vector(packetBytes) ETV
attr interpolationmode none
attr recordingmode vector(packetBytes)
attr source packetSent
attr title "packets sent, packetBytes"
vector 390 IEEE_802154_Net.slave[60].app[0] packetSent:vector(packetBytes) ETV
attr interpolationmode none
attr recordingmode vector(packetBytes)
attr source packetSent
attr title "packets sent, packetBytes"
vector 391 IEEE_802154_Net.slave[61].app[0] packetSent:vector(packetBytes) ETV
attr interpolationmode none
attr recordingmode vector(packetBytes)
attr source packetSent
attr title "packets sent, packetBytes"
vector 392 IEEE_802154_Net.slave[62].app[0] packetSent:vector(packetBytes) ETV
attr interpolationmode none
attr recordingmode vector(packetBytes)
attr source packetSent
attr title "packets sent, packetBytes"
vector 393 IEEE_802154_Net.slave[63].app[0] packetSent:vector(packetBytes) ETV
attr interpolationmode none
attr recordingmode vector(packetBytes)
attr source packetSent
attr title "packets sent, packetBytes"
vector 394 IEEE_802154_Net.slave[64].app[0] packetSent:vector(packetBytes) ETV
attr interpolationmode none
attr recordingmode vector(packetBytes)
attr source packetSent
attr title "packets sent, packetBytes"
vector 395 IEEE_802154_Net.slave[0].udp packetSent:vector(packetBytes) ETV
attr interpolationmode none
attr recordingmode vector(packetBytes)
attr source packetSent
attr title "packets sent, packetBytes"
vector 396 IEEE_802154_Net.slave[1].udp packetSent:vector(packetBytes) ETV
attr interpolationmode none
attr recordingmode vector(packetBytes)
attr source packetSent
attr title "packets sent, packetBytes"
vector 397 IEEE_802154_Net.slave[2].udp packetSent:vector(packetBytes) ETV
attr interpolationmode none
attr recordingmode vector(packetBytes)
attr source packetSent
attr title "packets sent, packetBytes"
vector 398 IEEE_802154_Net.slave[3].udp packetSent:vector(packetBytes) ETV
attr interpolationmode none
attr recordingmode vector(packetBytes)
attr source packetSent
attr title "packets sent, packetBytes"
vector 399 IEEE_802154_Net.slave[4].udp packetSent:vector(packetBytes) ETV
attr interpolationmode none
attr recordingmode vector(packetBytes)
attr source packetSent
attr title "packets sent, packetBytes"
vector 400 IEEE_802154_Net.slave[5].udp packetSent:vector(packetBytes) ETV
attr interpolationmode none
attr recordingmode vector(packetBytes)
attr source packetSent
attr title "packets sent, packetBytes"
vector 401 IEEE_802154_Net.slave[6].udp packetSent:vector(packetBytes) ETV
attr interpolationmode none
attr recordingmode vector(packetBytes)
attr source packetSent
attr title "packets sent, packetBytes"
vector 402 IEEE_802154_Net.slave[7].udp packetSent:vector(packetBytes) ETV
attr interpolationmode none
attr recordingmode vector(packetBytes)
attr source packetSent
attr title "packets sent, packetBytes"
vector 403 IEEE_802154_Net.slave[8].udp packetSent:vector(packetBytes) ETV
attr interpolationmode none
attr recordingmode vector(packetBytes)
attr source packetSent
attr title "packets sent, packetBytes"
vector 404 IEEE_802154_Net.slave[9].udp packetSent:vector(packetBytes) ETV
attr interpolationmode none
attr recordingmode vector(packetBytes)
attr source packetSent
attr title "packets sent, packetBytes"
vector 405 IEEE_802154_Net.slave[10].udp packetSent:vector(packetBytes) ETV
attr interpolationmode none
attr recordingmode vector(packetBytes)
attr source packetSent
attr title "packets sent, packetBytes"
vector 406 IEEE_802154_Net.slave[11].udp packetSent:vector(packetBytes) ETV
attr interpolationmode none
attr recordingmode vector(packetBytes)
attr source packetSent
attr title "packets sent, packetBytes"
vector 407 IEEE_802154_Net.slave[12].udp packetSent:vector(packetBytes) ETV
attr interpolationmode none
attr recordingmode vector(packetBytes)
attr source packetSent
attr title "packets sent, packetBytes"
vector 408 IEEE_802154_Net.slave[13].udp packetSent:vector(packetBytes) ETV
attr interpolationmode none
attr recordingmode vector(packetBytes)
attr source packetSent
attr title "packets sent, packetBytes"
vector 409 IEEE_802154_Net.slave[14].udp packetSent:vector(packetBytes) ETV
attr interpolationmode none
attr recordingmode vector(packetBytes)
attr source packetSent
attr title "packets sent, packetBytes"
vector 410 IEEE_802154_Net.slave[15].udp packetSent:vector(packetBytes) ETV
attr interpolationmode none
attr recordingmode vector(packetBytes)
attr source packetSent
attr title "packets sent, packetBytes"
vector 411 IEEE_802154_Net.slave[16].udp packetSent:vector(packetBytes) ETV
attr interpolationmode none
attr recordingmode vector(packetBytes)
attr source packetSent
attr title "packets sent, packetBytes"
0	94346 9 0 0 0 0 1 0 0 0 0
1	94355 9 0 0 0 0 1 0 0 0 0
2	94364 9 0 0 0 0 1 0 0 0 0
3	94373 9 0 0 0 0 1 0 0 0 0
4	94382 9 0 0 0 0 1 0 0 0 0
5	94391 9 0 0 0 0 1 0 0 0 0
6	94400 9 0 0 0 0 1 0 0 0 0
7	94409 9 0 0 0 0 1 0 0 0 0
8	94418 9 0 0 0 0 1 0 0 0 0
9	94427 9 0 0 0 0 1 0 0 0 0
10	94436 10 0 0 0 0 1 0 0 0 0
11	94446 10 0 0 0 0 1 0 0 0 0
12	94456 10 0 0 0 0 1 0 0 0 0
13	94466 10 0 0 0 0 1 0 0 0 0
14	94476 10 0 0 0 0 1 0 0 0 0
15	94486 10 0 0 0 0 1 0 0 0 0
16	94496 10 0 0 0 0 1 0 0 0 0
17	94506 10 0 0 0 0 1 0 0 0 0
18	94516 10 0 0 0 0 1 0 0 0 0
19	94526 10 0 0 0 0 1 0 0 0 0
20	94536 10 0 0 0 0 1 0 0 0 0
21	94546 10 0 0 0 0 1 0 0 0 0
22	94556 10 0 0 0 0 1 0 0 0 0
23	94566 10 0 0 0 0 1 0 0 0 0
24	94576 10 0 0 0 0 1 0 0 0 0
25	94586 10 0 0 0 0 1 0 0 0 0
26	94596 10 0 0 0 0 1 0 0 0 0
27	94606 10 0 0 0 0 1 0 0 0 0
28	94616 10 0 0 0 0 1 0 0 0 0
29	94626 10 0 0 0 0 1 0 0 0 0
30	94636 10 0 0 0 0 1 0 0 0 0
31	94646 10 0 0 0 0 1 0 0 0 0
32	94656 10 0 0 0 0 1 0 0 0 0
33	94666 10 0 0 0 0 1 0 0 0 0
34	94676 10 0 0 0 0 1 0 0 0 0
35	94686 10 0 0 0 0 1 0 0 0 0
36	94696 10 0 0 0 0 1 0 0 0 0
37	94706 10 0 0 0 0 1 0 0 0 0
38	94716 10 0 0 0 0 1 0 0 0 0
39	94726 10 0 0 0 0 1 0 0 0 0
40	94736 10 0 0 0 0 1 0 0 0 0
41	94746 10 0 0 0 0 1 0 0 0 0
42	94756 10 0 0 0 0 1 0 0 0 0
43	94766 10 0 0 0 0 1 0 0 0 0
44	94776 10 0 0 0 0 1 0 0 0 0
45	94786 10 0 0 0 0 1 0 0 0 0
46	94796 10 0 0 0 0 1 0 0 0 0
47	94806 10 0 0 0 0 1 0 0 0 0
48	94816 10 0 0 0 0 1 0 0 0 0
49	94826 10 0 0 0 0 1 0 0 0 0
50	94836 10 0 0 0 0 1 0 0 0 0
51	94846 10 0 0 0 0 1 0 0 0 0
52	94856 10 0 0 0 0 1 0 0 0 0
53	94866 10 0 0 0 0 1 0 0 0 0
54	94876 10 0 0 0 0 1 0 0 0 0
55	94886 10 0 0 0 0 1 0 0 0 0
56	94896 10 0 0 0 0 1 0 0 0 0
57	94906 10 0 0 0 0 1 0 0 0 0
58	94916 10 0 0 0 0 1 0 0 0 0
59	94926 10 0 0 0 0 1 0 0 0 0
60	94936 10 0 0 0 0 1 0 0 0 0
61	94946 10 0 0 0 0 1 0 0 0 0
62	94956 10 0 0 0 0 1 0 0 0 0
63	94966 10 0 0 0 0 1 0 0 0 0
64	94976 10 0 0 0 0 1 0 0 0 0
65	94986 10 0 0 0 0 1 0 0 0 0
66	94996 10 0 0 0 0 1 0 0 0 0
67	95006 10 0 0 0 0 1 0 0 0 0
68	95016 10 0 0 0 0 1 0 0 0 0
69	95026 10 0 0 0 0 1 0 0 0 0
70	95036 10 0 0 0 0 1 0 0 0 0
71	95046 10 0 0 0 0 1 0 0 0 0
72	95056 10 0 0 0 0 1 0 0 0 0
73	95066 10 0 0 0 0 1 0 0 0 0
74	95076 10 0 0 0 0 1 0 0 0 0
75	95086 10 0 0 0 0 1 0 0 0 0
76	95096 10 0 0 0 0 1 0 0 0 0
77	95106 10 0 0 0 0 1 0 0 0 0
78	95116 10 0 0 0 0 1 0 0 0 0
79	95126 10 0 0 0 0 1 0 0 0 0
80	95136 10 0 0 0 0 1 0 0 0 0
81	95146 10 0 0 0 0 1 0 0 0 0
82	95156 10 0 0 0 0 1 0 0 0 0
83	95166 10 0 0 0 0 1 0 0 0 0
84	95176 10 0 0 0 0 1 0 0 0 0
85	95186 10 0 0 0 0 1 0 0 0 0
86	95196 10 0 0 0 0 1 0 0 0 0
87	95206 10 0 0 0 0 1 0 0 0 0
88	95216 10 0 0 0 0 1 0 0 0 0
89	95226 10 0 0 0 0 1 0 0 0 0
90	95236 10 0 0 0 0 1 0 0 0 0
91	95246 10 0 0 0 0 1 0 0 0 0
92	95256 10 0 0 0 0 1 0 0 0 0
93	95266 10 0 0 0 0 1 0 0 0 0
94	95276 10 0 0 0 0 1 0 0 0 0
95	95286 10 0 0 0 0 1 0 0 0 0
96	95296 10 0 0 0 0 1 0 0 0 0
97	95306 10 0 0 0 0 1 0 0 0 0
98	95316 10 0 0 0 0 1 0 0 0 0
99	95326 10 0 0 0 0 1 0 0 0 0
100	95336 11 0 0 0 0 1 0 0 0 0
101	95347 11 0 0 0 0 1 0 0 0 0
102	95358 11 0 0 0 0 1 0 0 0 0
103	95369 11 0 0 0 0 1 0 0 0 0
104	95380 11 0 0 0 0 1 0 0 0 0
105	95391 11 0 0 0 0 1 0 0 0 0
106	95402 11 0 0 0 0 1 0 0 0 0
107	95413 11 0 0 0 0 1 0 0 0 0
108	95424 11 0 0 0 0 1 0 0 0 0
109	95435 11 0 0 0 0 1 0 0 0 0
110	95446 11 0 0 0 0 1 0 0 0 0
111	95457 11 0 0 0 0 1 0 0 0 0
112	95468 11 0 0 0 0 1 0 0 0 0
113	95479 11 0 0 0 0 1 0 0 0 0
114	95490 11 0 0 0 0 1 0 0 0 0
115	95501 11 0 0 0 0 1 0 0 0 0
116	95512 11 0 0 0 0 1 0 0 0 0
117	95523 11 0 0 0 0 1 0 0 0 0
118	95534 11 0 0 0 0 1 0 0 0 0
119	95545 11 0 0 0 0 1 0 0 0 0
120	95556 11 0 0 0 0 1 0 0 0 0
121	95567 11 0 0 0 0 1 0 0 0 0
122	95578 11 0 0 0 0 1 0 0 0 0
123	95589 11 0 0 0 0 1 0 0 0 0
124	95600 11 0 0 0 0 1 0 0 0 0
125	95611 11 0 0 0 0 1 0 0 0 0
126	95622 11 0 0 0 0 1 0 0 0 0
127	95633 11 0 0 0 0 1 0 0 0 0
128	95644 11 0 0 0 0 1 0 0 0 0
129	95655 11 0 0 0 0 1 0 0 0 0
130	95666 11 0 0 0 0 1 0 0 0 0
131	95677 11 0 0 0 0 1 0 0 0 0
132	95688 11 0 0 0 0 1 0 0 0 0
133	95699 11 0 0 0 0 1 0 0 0 0
134	95710 11 0 0 0 0 1 0 0 0 0
135	95721 11 0 0 0 0 1 0 0 0 0
136	95732 11 0 0 0 0 1 0 0 0 0
137	95743 11 0 0 0 0 1 0 0 0 0
138	95754 11 0 0 0 0 1 0 0 0 0
139	95765 11 0 0 0 0 1 0 0 0 0
140	95776 11 0 0 0 0 1 0 0 0 0
141	95787 11 0 0 0 0 1 0 0 0 0
142	95798 11 0 0 0 0 1 0 0 0 0
143	95809 11 0 0 0 0 1 0 0 0 0
144	95820 11 0 0 0 0 1 0 0 0 0
145	95831 11 0 0 0 0 1 0 0 0 0
146	95842 11 0 0 0 0 1 0 0 0 0
147	95853 11 0 0 0 0 1 0 0 0 0
148	95864 11 0 0 0 0 1 0 0 0 0
149	95875 11 0 0 0 0 1 0 0 0 0
150	95886 11 0 0 0 0 1 0 0 0 0
151	95897 11 0 0 0 0 1 0 0 0 0
152	95908 11 0 0 0 0 1 0 0 0 0
153	95919 11 0 0 0 0 1 0 0 0 0
154	95930 11 0 0 0 0 1 0 0 0 0
155	95941 11 0 0 0 0 1 0 0 0 0
156	95952 11 0 0 0 0 1 0 0 0 0
157	95963 11 0 0 0 0 1 0 0 0 0
158	95974 11 0 0 0 0 1 0 0 0 0
159	95985 11 0 0 0 0 1 0 0 0 0
160	95996 11 0 0 0 0 1 0 0 0 0
161	96007 11 0 0 0 0 1 0 0 0 0
162	96018 11 0 0 0 0 1 0 0 0 0
163	96029 11 0 0 0 0 1 0 0 0 0
164	96040 11 0 0 0 0 1 0 0 0 0
165	96051 11 0 0 0 0 1 0 0 0 0
166	96062 11 0 0 0 0 1 0 0 0 0
167	96073 11 0 0 0 0 1 0 0 0 0
168	96084 11 0 0 0 0 1 0 0 0 0
169	96095 11 0 0 0 0 1 0 0 0 0
170	96106 11 0 0 0 0 1 0 0 0 0
171	96117 11 0 0 0 0 1 0 0 0 0
172	96128 11 0 0 0 0 1 0 0 0 0
173	96139 11 0 0 0 0 1 0 0 0 0
174	96150 11 0 0 0 0 1 0 0 0 0
175	96161 11 0 0 0 0 1 0 0 0 0
176	96172 11 0 0 0 0 1 0 0 0 0
177	96183 11 0 0 0 0 1 0 0 0 0
178	96194 11 0 0 0 0 1 0 0 0 0
179	96205 11 0 0 0 0 1 0 0 0 0
180	96216 11 0 0 0 0 1 0 0 0 0
181	96227 11 0 0 0 0 1 0 0 0 0
182	96238 11 0 0 0 0 1 0 0 0 0
183	96249 11 0 0 0 0 1 0 0 0 0
184	96260 11 0 0 0 0 1 0 0 0 0
185	96271 11 0 0 0 0 1 0 0 0 0
186	96282 11 0 0 0 0 1 0 0 0 0
187	96293 11 0 0 0 0 1 0 0 0 0
188	96304 11 0 0 0 0 1 0 0 0 0
189	96315 11 0 0 0 0 1 0 0 0 0
190	96326 11 0 0 0 0 1 0 0 0 0
191	96337 11 0 0 0 0 1 0 0 0 0
192	96348 11 0 0 0 0 1 0 0 0 0
193	96359 11 0 0 0 0 1 0 0 0 0
194	96370 11 0 0 0 0 1 0 0 0 0
195	96381 11 0 0 0 0 1 0 0 0 0
196	96392 11 0 0 0 0 1 0 0 0 0
197	96403 11 0 0 0 0 1 0 0 0 0
198	96414 33 0 0 0 0 3 0 2 2 4
199	96447 33 0 0 0 0 3 0 2 2 4
200	96480 33 0 0 0 0 3 0 2 2 4
201	96513 33 0 0 0 0 3 0 2 2 4
202	96546 33 0 0 0 0 3 0 2 2 4
203	96579 33 0 0 0 0 3 0 2 2 4
204	96612 33 0 0 0 0 3 0 2 2 4
205	96645 33 0 0 0 0 3 0 2 2 4
206	96678 33 0 0 0 0 3 0 2 2 4
207	96711 33 0 0 0 0 3 0 2 2 4
208	96744 33 0 0 0 0 3 0 2 2 4
209	96777 33 0 0 0 0 3 0 2 2 4
210	96810 33 0 0 0 0 3 0 2 2 4
211	96843 33 0 0 0 0 3 0 2 2 4
212	96876 33 0 0 0 0 3 0 2 2 4
213	96909 33 0 0 0 0 3 0 2 2 4
214	96942 33 0 0 0 0 3 0 2 2 4
215	96975 33 0 0 0 0 3 0 2 2 4
216	97008 33 0 0 0 0 3 0 2 2 4
217	97041 33 0 0 0 0 3 0 2 2 4
218	97074 33 0 0 0 0 3 0 2 2 4
219	97107 33 0 0 0 0 3 0 2 2 4
220	97140 33 0 0 0 0 3 0 2 2 4
221	97173 33 0 0 0 0 3 0 2 2 4
222	97206 33 0 0 0 0 3 0 2 2 4
223	97239 33 0 0 0 0 3 0 2 2 4
224	97272 33 0 0 0 0 3 0 2 2 4
225	97305 33 0 0 0 0 3 0 2 2 4
226	97338 33 0 0 0 0 3 0 2 2 4
227	97371 33 0 0 0 0 3 0 2 2 4
228	97404 33 0 0 0 0 3 0 2 2 4
229	97437 33 0 0 0 0 3 0 2 2 4
230	97470 33 0 0 0 0 3 0 2 2 4
231	97503 33 0 0 0 0 3 0 2 2 4
232	97536 33 0 0 0 0 3 0 2 2 4
233	97569 33 0 0 0 0 3 0 2 2 4
234	97602 33 0 0 0 0 3 0 2 2 4
235	97635 33 0 0 0 0 3 0 2 2 4
236	97668 33 0 0 0 0 3 0 2 2 4
237	97701 33 0 0 0 0 3 0 2 2 4
238	97734 33 0 0 0 0 3 0 2 2 4
239	97767 33 0 0 0 0 3 0 2 2 4
240	97800 33 0 0 0 0 3 0 2 2 4
241	97833 33 0 0 0 0 3 0 2 2 4
242	97866 33 0 0 0 0 3 0 2 2 4
243	97899 33 0 0 0 0 3 0 2 2 4
244	97932 33 0 0 0 0 3 0 2 2 4
245	97965 33 0 0 0 0 3 0 2 2 4
246	97998 33 0 0 0 0 3 0 2 2 4
247	98031 33 0 0 0 0 3 0 2 2 4
248	98064 33 0 0 0 0 3 0 2 2 4
249	98097 33 0 0 0 0 3 0 2 2 4
250	98130 33 0 0 0 0 3 0 2 2 4
251	98163 33 0 0 0 0 3 0 2 2 4
252	98196 33 0 0 0 0 3 0 2 2 4
253	98229 33 0 0 0 0 3 0 2 2 4
254	98262 33 0 0 0 0 3 0 2 2 4
255	98295 33 0 0 0 0 3 0 2 2 4
256	98328 33 0 0 0 0 3 0 2 2 4
257	98361 33 0 0 0 0 3 0 2 2 4
258	98394 33 0 0 0 0 3 0 2 2 4
259	98427 33 0 0 0 0 3 0 2 2 4
260	98460 33 0 0 0 0 3 0 2 2 4
261	98493 33 0 0 0 0 3 0 2 2 4
262	98526 33 0 0 0 0 3 0 2 2 4
263	98559 33 0 0 0 0 3 0 2 2 4
264	98592 11 0 0 0 0 1 1 1 1 1
265	98603 11 0 0 0 0 1 1 1 1 1
266	98614 11 0 0 0 0 1 1 1 1 1
267	98625 11 0 0 0 0 1 1 1 1 1
268	98636 11 0 0 0 0 1 1 1 1 1
269	98647 11 0 0 0 0 1 1 1 1 1
270	98658 11 0 0 0 0 1 1 1 1 1
271	98669 11 0 0 0 0 1 1 1 1 1
272	98680 11 0 0 0 0 1 1 1 1 1
273	98691 11 0 0 0 0 1 1 1 1 1
274	98702 11 0 0 0 0 1 1 1 1 1
275	98713 11 0 0 0 0 1 1 1 1 1
276	98724 11 0 0 0 0 1 1 1 1 1
277	98735 11 0 0 0 0 1 1 1 1 1
278	98746 11 0 0 0 0 1 1 1 1 1
279	98757 11 0 0 0 0 1 1 1 1 1
280	98768 11 0 0 0 0 1 1 1 1 1
281	98779 11 0 0 0 0 1 1 1 1 1
282	98790 11 0 0 0 0 1 1 1 1 1
283	98801 11 0 0 0 0 1 1 1 1 1
284	98812 11 0 0 0 0 1 1 1 1 1
285	98823 11 0 0 0 0 1 1 1 1 1
286	98834 11 0 0 0 0 1 1 1 1 1
287	98845 11 0 0 0 0 1 1 1 1 1
288	98856 11 0 0 0 0 1 1 1 1 1
289	98867 11 0 0 0 0 1 1 1 1 1
290	98878 11 0 0 0 0 1 1 1 1 1
291	98889 11 0 0 0 0 1 1 1 1 1
292	98900 11 0 0 0 0 1 1 1 1 1
293	98911 11 0 0 0 0 1 1 1 1 1
294	98922 11 0 0 0 0 1 1 1 1 1
295	98933 11 0 0 0 0 1 1 1 1 1
296	98944 11 0 0 0 0 1 1 1 1 1
297	98955 11 0 0 0 0 1 1 1 1 1
298	98966 11 0 0 0 0 1 1 1 1 1
299	98977 11 0 0 0 0 1 1 1 1 1
300	98988 11 0 0 0 0 1 1 1 1 1
301	98999 11 0 0 0 0 1 1 1 1 1
302	99010 11 0 0 0 0 1 1 1 1 1
303	99021 11 0 0 0 0 1 1 1 1 1
304	99032 11 0 0 0 0 1 1 1 1 1
305	99043 11 0 0 0 0 1 1 1 1 1
306	99054 11 0 0 0 0 1 1 1 1 1
307	99065 11 0 0 0 0 1 1 1 1 1
308	99076 11 0 0 0 0 1 1 1 1 1
309	99087 11 0 0 0 0 1 1 1 1 1
310	99098 11 0 0 0 0 1 1 1 1 1
311	99109 11 0 0 0 0 1 1 1 1 1
312	99120 11 0 0 0 0 1 1 1 1 1
313	99131 11 0 0 0 0 1 1 1 1 1
314	99142 11 0 0 0 0 1 1 1 1 1
315	99153 11 0 0 0 0 1 1 1 1 1
316	99164 11 0 0 0 0 1 1 1 1 1
317	99175 11 0 0 0 0 1 1 1 1 1
318	99186 11 0 0 0 0 1 1 1 1 1
319	99197 11 0 0 0 0 1 1 1 1 1
320	99208 11 0 0 0 0 1 1 1 1 1
321	99219 11 0 0 0 0 1 1 1 1 1
322	99230 11 0 0 0 0 1 1 1 1 1
323	99241 11 0 0 0 0 1 1 1 1 1
324	99252 11 0 0 0 0 1 1 1 1 1
325	99263 11 0 0 0 0 1 1 1 1 1
326	99274 11 0 0 0 0 1 1 1 1 1
327	99285 11 0 0 0 0 1 1 1 1 1
328	99296 11 0 0 0 0 1 1 1 1 1
329	99307 11 0 0 0 0 1 1 1 1 1
330	99318 12 1 1 0 0 1 10 10 10 100
331	99330 12 2 2 0 0 1 10 10 10 100
332	99342 12 3 3 0 0 1 10 10 10 100
333	99354 12 4 4 0 0 1 10 10 10 100
334	99366 12 5 5 0 0 1 10 10 10 100
335	99378 12 6 6 0 0 1 10 10 10 100
336	99390 12 7 7 0 0 1 10 10 10 100
337	99402 12 8 8 0 0 1 10 10 10 100
338	99414 12 9 9 0 0 1 10 10 10 100
339	99426 13 10 10 0 0 1 10 10 10 100
340	99439 13 11 11 0 0 1 10 10 10 100
341	99452 13 12 12 0 0 1 10 10 10 100
342	99465 13 13 13 0 0 1 10 10 10 100
343	99478 13 14 14 0 0 1 10 10 10 100
344	99491 13 15 15 0 0 1 10 10 10 100
345	99504 13 16 16 0 0 1 10 10 10 100
346	99517 13 17 17 0 0 1 10 10 10 100
347	99530 13 18 18 0 0 1 10 10 10 100
348	99543 13 19 19 0 0 1 10 10 10 100
349	99556 13 20 20 0 0 1 10 10 10 100
350	99569 13 21 21 0 0 1 10 10 10 100
351	99582 13 22 22 0 0 1 10 10 10 100
352	99595 13 23 23 0 0 1 10 10 10 100
353	99608 13 24 24 0 0 1 10 10 10 100
354	99621 13 25 25 0 0 1 10 10 10 100
355	99634 13 26 26 0 0 1 10 10 10 100
356	99647 13 27 27 0 0 1 10 10 10 100
357	99660 13 28 28 0 0 1 10 10 10 100
358	99673 13 29 29 0 0 1 10 10 10 100
359	99686 13 30 30 0 0 1 10 10 10 100
360	99699 13 31 31 0 0 1 10 10 10 100
361	99712 13 32 32 0 0 1 10 10 10 100
362	99725 13 33 33 0 0 1 10 10 10 100
363	99738 13 34 34 0 0 1 10 10 10 100
364	99751 13 35 35 0 0 1 10 10 10 100
365	99764 13 36 36 0 0 1 10 10 10 100
366	99777 13 37 37 0 0 1 10 10 10 100
367	99790 13 38 38 0 0 1 10 10 10 100
368	99803 13 39 39 0 0 1 10 10 10 100
369	99816 13 40 40 0 0 1 10 10 10 100
370	99829 13 41 41 0 0 1 10 10 10 100
371	99842 13 42 42 0 0 1 10 10 10 100
372	99855 13 43 43 0 0 1 10 10 10 100
373	99868 13 44 44 0 0 1 10 10 10 100
374	99881 13 45 45 0 0 1 10 10 10 100
375	99894 13 46 46 0 0 1 10 10 10 100
376	99907 13 47 47 0 0 1 10 10 10 100
377	99920 13 48 48 0 0 1 10 10 10 100
378	99933 13 49 49 0 0 1 10 10 10 100
379	99946 13 50 50 0 0 1 10 10 10 100
380	99959 13 51 51 0 0 1 10 10 10 100
381	99972 13 52 52 0 0 1 10 10 10 100
382	99985 13 53 53 0 0 1 10 10 10 100
383	99998 13 54 54 0 0 1 10 10 10 100
384	100011 13 55 55 0 0 1 10 10 10 100
385	100024 13 56 56 0 0 1 10 10 10 100
386	100037 13 57 57 0 0 1 10 10 10 100
387	100050 13 58 58 0 0 1 10 10 10 100
388	100063 13 59 59 0 0 1 10 10 10 100
389	100076 13 60 60 0 0 1 10 10 10 100
390	100089 13 61 61 0 0 1 10 10 10 100
391	100102 13 62 62 0 0 1 10 10 10 100
392	100115 13 63 63 0 0 1 10 10 10 100
393	100128 13 64 64 0 0 1 10 10 10 100
394	100141 13 65 65 0 0 1 10 10 10 100
395	100154 13 68 68 0 0 1 18 18 18 324
396	100167 13 70 70 0 0 1 18 18 18 324
397	100180 13 72 72 0 0 1 18 18 18 324
398	100193 13 74 74 0 0 1 18 18 18 324
399	100206 13 76 76 0 0 1 18 18 18 324
400	100219 13 78 78 0 0 1 18 18 18 324
401	100232 13 80 80 0 0 1 18 18 18 324
402	100245 13 82 82 0 0 1 18 18 18 324
403	100258 13 84 84 0 0 1 18 18 18 324
404	100271 13 86 86 0 0 1 18 18 18 324
405	100284 13 88 88 0 0 1 18 18 18 324
406	100297 13 90 90 0 0 1 18 18 18 324
407	100310 13 92 92 0 0 1 18 18 18 324
408	100323 13 94 94 0 0 1 18 18 18 324
409	100336 13 96 96 0 0 1 18 18 18 324
410	100349 13 98 98 0 0 1 18 18 18 324
411	100362 14 100 100 0 0 1 18 18 18 324

