version 3
run Mobile-0-20221202-09:26:52-9936
attr configname Mobile
attr datetime 20221202-09:26:52
attr datetimef 20221202-092652
attr experiment Mobile
attr inifile omnetpp.ini
attr iterationvars ""
attr iterationvarsd ""
attr iterationvarsf ""
attr measurement ""
attr network IEEE_802154_Mobile_Net
attr processid 9936
attr repetition 0
attr replication #0
attr resultdir results
attr runnumber 0
attr seedset 0
config image-path ../../inet4.4/images
config description "Mobile scenario with a number of slave nodes sending messages to master node"
config network IEEE_802154_Mobile_Net
config sim-time-limit 1000s
config **.arp.typename GlobalArp
config **.netmaskRoutes "\"\""
config *.radioMedium.backgroundNoise.power -110dBm
config *.configurator.config "xmldoc(\"topology.xml\")"
config *.num 65
config *.slave*.mobility.typename GaussMarkovMobility
config *.slave*.mobility.constraintAreaMaxX 1050m
config *.slave*.mobility.constraintAreaMinX 50m
config *.slave*.mobility.constraintAreaMaxY 1050m
config *.slave*.mobility.constraintAreaMinY 50m
config *.slave*.mobility.constraintAreaMaxZ 0m
config *.slave*.mobility.constraintAreaMinZ 0m
config *.slave*.mobility.speed 20.0mps
config *.slave*.mobility.speedStdDev 5.0mps
config *.slave*.mobility.angle uniform(0deg,180deg)
config *.slave*.mobility.angleStdDev 30deg
config *.slave*.mobility.margin 10m
config *.slave*.mobility.updateInterval 0.3s
config *.slave*.numApps 1
config *.slave*.app[0].typename UdpBasicApp
config *.slave*.app[0].destAddresses "\"master\""
config *.slave*.app[0].destPort 1000
config *.slave*.app[0].sendInterval 1s
config *.slave*.app[0].startTime 0s
config *.slave*.app[0].messageLength 10Byte
config *.master.numApps 1
config *.master.app[0].typename UdpSink
config *.master.app[0].localPort 1000
config *.visualizer.*.mediumVisualizer[0].displayCommunicationRanges true
config *.visualizer.*.mediumVisualizer[0].nodeFilter "\"master\""
config *.visualizer.*.mobilityVisualizer[0].displayVelocities true
config *.visualizer.*.mobilityVisualizer[0].displayMovementTrails true
config *.visualizer.*.routingTableVisualizer[0].displayRoutingTables false
config *.visualizer.*.routingTableVisualizer[0].displayRoutesIndividually false
config *.visualizer.*.routingTableVisualizer[0].lineShift 0
config *.visualizer.*.routingTableVisualizer[0].displayLabels false
config *.visualizer.*.interfaceTableVisualizer[0].displayInterfaceTables false
config *.visualizer.*.numDataLinkVisualizers 2
config *.visualizer.*.dataLinkVisualizer[*].displayLinks false
config *.visualizer.*.dataLinkVisualizer[0].nodeFilter "\"slave* or master\""
config *.visualizer.*.numStatisticVisualizers 2
config *.visualizer.*.statisticVisualizer[*].zIndex 1
config *.visualizer.*.statisticVisualizer[0].displayStatistics true
config *.visualizer.*.statisticVisualizer[0].signalName "\"packetSent\""
config *.visualizer.*.statisticVisualizer[0].statisticExpression "\"count\""
config *.visualizer.*.statisticVisualizer[0].sourceFilter "\"**.master.udp **.slave*.udp\""
config *.visualizer.*.statisticVisualizer[0].format "\"sent: %v pks\""
config *.visualizer.*.statisticVisualizer[1].displayStatistics true
config *.visualizer.*.statisticVisualizer[1].signalName "\"packetReceived\""
config *.visualizer.*.statisticVisualizer[1].statisticExpression "\"count\""
config *.visualizer.*.statisticVisualizer[1].sourceFilter "\"**.master.udp\""
config *.visualizer.*.statisticVisualizer[1].format "\"rcvd: %v pks\""

par IEEE_802154_Mobile_Net.configurator typename "\"inet.networklayer.configurator.ipv4.Ipv4NetworkConfigurator\""
par IEEE_802154_Mobile_Net.configurator minLinkWeight 0.001
par IEEE_802154_Mobile_Net.configurator configureIsolatedNetworksSeparatly false
par IEEE_802154_Mobile_Net.configurator config "<config>...</config> at C:/Users/WELCOME/Downloads/OMNeT-INET-GMLA-main/main/\\topology.xml:1"
par IEEE_802154_Mobile_Net.configurator assignAddresses true
par IEEE_802154_Mobile_Net.configurator assignUniqueAddresses true
par IEEE_802154_Mobile_Net.configurator assignDisjunctSubnetAddresses true
par IEEE_802154_Mobile_Net.configurator addStaticRoutes true
par IEEE_802154_Mobile_Net.configurator addDefaultRoutes true
par IEEE_802154_Mobile_Net.configurator addSubnetRoutes true
par IEEE_802154_Mobile_Net.configurator addDirectRoutes true
par IEEE_802154_Mobile_Net.configurator optimizeRoutes true
par IEEE_802154_Mobile_Net.configurator dumpTopology false
par IEEE_802154_Mobile_Net.configurator dumpLinks false
par IEEE_802154_Mobile_Net.configurator dumpAddresses false
par IEEE_802154_Mobile_Net.configurator dumpRoutes false
par IEEE_802154_Mobile_Net.configurator dumpConfig "\"\""
par IEEE_802154_Mobile_Net.radioMedium.propagation typename "\"inet.physicallayer.wireless.common.propagation.ConstantSpeedPropagation\""
par IEEE_802154_Mobile_Net.radioMedium.propagation propagationSpeed 2.99792e+08mps
attr unit mps
par IEEE_802154_Mobile_Net.radioMedium.propagation ignoreMovementDuringTransmission true
par IEEE_802154_Mobile_Net.radioMedium.propagation ignoreMovementDuringPropagation true
par IEEE_802154_Mobile_Net.radioMedium.propagation ignoreMovementDuringReception true
scalar IEEE_802154_Mobile_Net.radioMedium.propagation "Arrival computation count" 0
par IEEE_802154_Mobile_Net.radioMedium.analogModel typename "\"inet.physicallayer.wireless.common.analogmodel.packetlevel.ScalarAnalogModel\""
par IEEE_802154_Mobile_Net.radioMedium.analogModel ignorePartialInterference false
par IEEE_802154_Mobile_Net.radioMedium.backgroundNoise typename "\"inet.physicallayer.wireless.common.backgroundnoise.IsotropicScalarBackgroundNoise\""
par IEEE_802154_Mobile_Net.radioMedium.backgroundNoise power -110dBm
attr unit dBm
par IEEE_802154_Mobile_Net.radioMedium.backgroundNoise bandwidth "nan Hz"
attr unit Hz
par IEEE_802154_Mobile_Net.radioMedium.pathLoss typename "\"inet.physicallayer.wireless.common.pathloss.BreakpointPathLoss\""
par IEEE_802154_Mobile_Net.radioMedium.pathLoss l01 40.2
par IEEE_802154_Mobile_Net.radioMedium.pathLoss l02 58.5
par IEEE_802154_Mobile_Net.radioMedium.pathLoss alpha1 2
par IEEE_802154_Mobile_Net.radioMedium.pathLoss alpha2 3.3
par IEEE_802154_Mobile_Net.radioMedium.pathLoss breakpointDistance 8m
attr unit m
par IEEE_802154_Mobile_Net.radioMedium.mediumLimitCache typename "\"inet.physicallayer.wireless.common.medium.MediumLimitCache\""
par IEEE_802154_Mobile_Net.radioMedium.mediumLimitCache centerFrequency 2.45e+09Hz
attr unit Hz
par IEEE_802154_Mobile_Net.radioMedium.mediumLimitCache maxSpeed "nan mps"
attr unit mps
par IEEE_802154_Mobile_Net.radioMedium.mediumLimitCache maxTransmissionPower "nan W"
attr unit W
par IEEE_802154_Mobile_Net.radioMedium.mediumLimitCache minInterferencePower "nan dBm"
attr unit dBm
par IEEE_802154_Mobile_Net.radioMedium.mediumLimitCache minReceptionPower "nan dBm"
attr unit dBm
par IEEE_802154_Mobile_Net.radioMedium.mediumLimitCache maxAntennaGain 0dB
attr unit dB
par IEEE_802154_Mobile_Net.radioMedium.mediumLimitCache minInterferenceTime 1e-12s
attr unit s
par IEEE_802154_Mobile_Net.radioMedium.mediumLimitCache maxTransmissionDuration 0.01s
attr unit s
par IEEE_802154_Mobile_Net.radioMedium.mediumLimitCache maxCommunicationRange "nan m"
attr unit m
par IEEE_802154_Mobile_Net.radioMedium.mediumLimitCache maxInterferenceRange "nan m"
attr unit m
par IEEE_802154_Mobile_Net.radioMedium.communicationCache typename "\"inet.physicallayer.wireless.common.communicationcache.VectorCommunicationCache\""
par IEEE_802154_Mobile_Net.radioMedium typename "\"inet.physicallayer.wireless.ieee802154.packetlevel.Ieee802154NarrowbandScalarRadioMedium\""
par IEEE_802154_Mobile_Net.radioMedium physicalEnvironmentModule "\"physicalEnvironment\""
par IEEE_802154_Mobile_Net.radioMedium signalAnalogRepresentation "\"scalar\""
attr enum unitDisk,scalar,dimensional
par IEEE_802154_Mobile_Net.radioMedium rangeFilter "\"\""
par IEEE_802154_Mobile_Net.radioMedium radioModeFilter false
par IEEE_802154_Mobile_Net.radioMedium listeningFilter false
par IEEE_802154_Mobile_Net.radioMedium macAddressFilter false
par IEEE_802154_Mobile_Net.radioMedium recordTransmissionLog false
par IEEE_802154_Mobile_Net.radioMedium recordReceptionLog false
scalar IEEE_802154_Mobile_Net.radioMedium "transmission count" 0
scalar IEEE_802154_Mobile_Net.radioMedium "signal send count" 0
scalar IEEE_802154_Mobile_Net.radioMedium "reception computation count" 0
scalar IEEE_802154_Mobile_Net.radioMedium "interference computation count" 132
scalar IEEE_802154_Mobile_Net.radioMedium "reception decision computation count" 0
scalar IEEE_802154_Mobile_Net.radioMedium "listening decision computation count" 132
scalar IEEE_802154_Mobile_Net.radioMedium "reception cache hit" nan
attr unit %
scalar IEEE_802154_Mobile_Net.radioMedium "interference cache hit" nan
attr unit %
scalar IEEE_802154_Mobile_Net.radioMedium "noise cache hit" nan
attr unit %
scalar IEEE_802154_Mobile_Net.radioMedium "snir cache hit" nan
attr unit %
scalar IEEE_802154_Mobile_Net.radioMedium "reception decision cache hit" nan
attr unit %
scalar IEEE_802154_Mobile_Net.radioMedium "reception result cache hit" nan
attr unit %
par IEEE_802154_Mobile_Net.slave[0].radioIn[0].channel typename "\"ned.IdealChannel\""
par IEEE_802154_Mobile_Net.slave[0].mobility typename "\"inet.mobility.single.GaussMarkovMobility\""
par IEEE_802154_Mobile_Net.slave[0].mobility subjectModule "\"^\""
par IEEE_802154_Mobile_Net.slave[0].mobility coordinateSystemModule "\"\""
par IEEE_802154_Mobile_Net.slave[0].mobility displayStringTextFormat "\"p: %p\\nv: %v\""
attr mutable ""
par IEEE_802154_Mobile_Net.slave[0].mobility updateDisplayString true
par IEEE_802154_Mobile_Net.slave[0].mobility constraintAreaMinX 50m
attr unit m
par IEEE_802154_Mobile_Net.slave[0].mobility constraintAreaMinY 50m
attr unit m
par IEEE_802154_Mobile_Net.slave[0].mobility constraintAreaMinZ 0m
attr unit m
par IEEE_802154_Mobile_Net.slave[0].mobility constraintAreaMaxX 1050m
attr unit m
par IEEE_802154_Mobile_Net.slave[0].mobility constraintAreaMaxY 1050m
attr unit m
par IEEE_802154_Mobile_Net.slave[0].mobility constraintAreaMaxZ 0m
attr unit m
par IEEE_802154_Mobile_Net.slave[0].mobility updateInterval 0.3s
attr unit s
par IEEE_802154_Mobile_Net.slave[0].mobility faceForward true
par IEEE_802154_Mobile_Net.slave[0].mobility alpha 0.5
par IEEE_802154_Mobile_Net.slave[0].mobility speed 20mps
attr unit mps
par IEEE_802154_Mobile_Net.slave[0].mobility speedStdDev 5mps
attr unit mps
par IEEE_802154_Mobile_Net.slave[0].mobility angle 98.7864deg
attr unit deg
par IEEE_802154_Mobile_Net.slave[0].mobility angleStdDev 30deg
attr unit deg
par IEEE_802154_Mobile_Net.slave[0].mobility margin 10m
attr unit m
par IEEE_802154_Mobile_Net.slave[0].interfaceTable typename "\"inet.networklayer.common.InterfaceTable\""
par IEEE_802154_Mobile_Net.slave[0].interfaceTable displayAddresses false
par IEEE_802154_Mobile_Net.slave[0].cb typename "\"inet.common.MessageDispatcher\""
par IEEE_802154_Mobile_Net.slave[0].cb displayStringTextFormat "\"processed %p pk (%l)\""
par IEEE_802154_Mobile_Net.slave[0].cb forwardServiceRegistration true
par IEEE_802154_Mobile_Net.slave[0].cb forwardProtocolRegistration true
par IEEE_802154_Mobile_Net.slave[0].bl typename "\"inet.common.MessageDispatcher\""
par IEEE_802154_Mobile_Net.slave[0].bl displayStringTextFormat "\"processed %p pk (%l)\""
par IEEE_802154_Mobile_Net.slave[0].bl forwardServiceRegistration true
par IEEE_802154_Mobile_Net.slave[0].bl forwardProtocolRegistration true
par IEEE_802154_Mobile_Net.slave[0].li typename "\"inet.common.MessageDispatcher\""
par IEEE_802154_Mobile_Net.slave[0].li displayStringTextFormat "\"processed %p pk (%l)\""
par IEEE_802154_Mobile_Net.slave[0].li forwardServiceRegistration true
par IEEE_802154_Mobile_Net.slave[0].li forwardProtocolRegistration true
par IEEE_802154_Mobile_Net.slave[0].lo[0].upperLayerIn.channel typename "\"ned.IdealChannel\""
par IEEE_802154_Mobile_Net.slave[0].lo[0].lo.upperLayerOut.channel typename "\"ned.IdealChannel\""
par IEEE_802154_Mobile_Net.slave[0].lo[0].lo typename "\"inet.linklayer.loopback.Loopback\""
par IEEE_802154_Mobile_Net.slave[0].lo[0].lo interfaceTableModule "\"IEEE_802154_Mobile_Net.slave[0].interfaceTable\""
par IEEE_802154_Mobile_Net.slave[0].lo[0].lo mtu 4470B
attr unit B
scalar IEEE_802154_Mobile_Net.slave[0].lo[0].lo rcvdPkFromHl:count 0
attr interpolationmode none
attr recordingmode count
attr source packetReceivedFromUpper
attr title "packets received from higher layer, count"
scalar IEEE_802154_Mobile_Net.slave[0].lo[0].lo rcvdPkFromHl:sum(packetBytes) 0
attr interpolationmode none
attr recordingmode sum(packetBytes)
attr source packetReceivedFromUpper
attr title "packets received from higher layer, sum(packetBytes)"
scalar IEEE_802154_Mobile_Net.slave[0].lo[0].lo passedUpPk:count 0
attr interpolationmode none
attr recordingmode count
attr source packetSentToUpper
attr title "packets passed to higher layer, count"
scalar IEEE_802154_Mobile_Net.slave[0].lo[0].lo passedUpPk:sum(packetBytes) 0
attr interpolationmode none
attr recordingmode sum(packetBytes)
attr source packetSentToUpper
attr title "packets passed to higher layer, sum(packetBytes)"
par IEEE_802154_Mobile_Net.slave[0].lo[0] typename "\"inet.linklayer.loopback.LoopbackInterface\""
par IEEE_802154_Mobile_Net.slave[0].lo[0] displayStringTextFormat "\"%a (%i)\\n%m\""
par IEEE_802154_Mobile_Net.slave[0].lo[0] recordPcap false
par IEEE_802154_Mobile_Net.slave[0].lo[0] numPcapRecorders 0
par IEEE_802154_Mobile_Net.slave[0].lo[0] interfaceTableModule "\"IEEE_802154_Mobile_Net.slave[0].interfaceTable\""
scalar IEEE_802154_Mobile_Net.slave[0].lo[0] packetDropInterfaceDown:count 0
attr interpolationmode none
attr recordingmode count
attr source packetDropReasonIsInterfaceDown(packetDropped)
attr title "packet drops: interface down, count"
scalar IEEE_802154_Mobile_Net.slave[0].lo[0] packetDropInterfaceDown:sum(packetBytes) 0
attr interpolationmode none
attr recordingmode sum(packetBytes)
attr source packetDropReasonIsInterfaceDown(packetDropped)
attr title "packet drops: interface down, sum(packetBytes)"
scalar IEEE_802154_Mobile_Net.slave[0].lo[0] packetDropNoCarrier:count 0
attr interpolationmode none
attr recordingmode count
attr source packetDropReasonIsNoCarrier(packetDropped)
attr title "packet drops: no carrier, count"
scalar IEEE_802154_Mobile_Net.slave[0].lo[0] packetDropNoCarrier:sum(packetBytes) 0
attr interpolationmode none
attr recordingmode sum(packetBytes)
attr source packetDropReasonIsNoCarrier(packetDropped)
attr title "packet drops: no carrier, sum(packetBytes)"
par IEEE_802154_Mobile_Net.slave[0].wlan[0].upperLayerIn.channel typename "\"ned.IdealChannel\""
par IEEE_802154_Mobile_Net.slave[0].wlan[0].radioIn.channel typename "\"ned.IdealChannel\""
par IEEE_802154_Mobile_Net.slave[0].wlan[0].mac.upperLayerOut.channel typename "\"ned.IdealChannel\""
par IEEE_802154_Mobile_Net.slave[0].wlan[0].queue typename "\"inet.queueing.queue.DropTailQueue\""
par IEEE_802154_Mobile_Net.slave[0].wlan[0].queue displayStringTextFormat "\"contains %p pk (%l) pushed %u\\npulled %o removed %r dropped %d\""
par IEEE_802154_Mobile_Net.slave[0].wlan[0].queue packetCapacity 100
par IEEE_802154_Mobile_Net.slave[0].wlan[0].queue dataCapacity -1b
attr unit b
par IEEE_802154_Mobile_Net.slave[0].wlan[0].queue dropperClass "\"inet::queueing::PacketAtCollectionEndDropper\""
par IEEE_802154_Mobile_Net.slave[0].wlan[0].queue comparatorClass "\"\""
par IEEE_802154_Mobile_Net.slave[0].wlan[0].queue bufferModule "\"\""
scalar IEEE_802154_Mobile_Net.slave[0].wlan[0].queue queueLength:last nan
attr autoWarmupFilter false
attr interpolationmode sample-hold
attr recordingmode last
attr source "warmup(atomic(constant0(packetPushEnded) + count(packetPushStarted) - count(packetPulled) - count(packetRemoved) - count(packetDropped)))"
attr title "queue length, last"
attr unit pk
scalar IEEE_802154_Mobile_Net.slave[0].wlan[0].queue queueLength:max nan
attr autoWarmupFilter false
attr interpolationmode sample-hold
attr recordingmode max
attr source "warmup(atomic(constant0(packetPushEnded) + count(packetPushStarted) - count(packetPulled) - count(packetRemoved) - count(packetDropped)))"
attr title "queue length, max"
attr unit pk
scalar IEEE_802154_Mobile_Net.slave[0].wlan[0].queue queueLength:timeavg nan
attr autoWarmupFilter false
attr interpolationmode sample-hold
attr recordingmode timeavg
attr source "warmup(atomic(constant0(packetPushEnded) + count(packetPushStarted) - count(packetPulled) - count(packetRemoved) - count(packetDropped)))"
attr title "queue length, timeavg"
attr unit pk
scalar IEEE_802154_Mobile_Net.slave[0].wlan[0].queue queueBitLength:last nan
attr autoWarmupFilter false
attr interpolationmode sample-hold
attr recordingmode last
attr source "warmup(atomic(constant0(packetPushEnded) + sum(packetLength(packetPushStarted)) - sum(packetLength(packetPulled)) - sum(packetLength(packetRemoved)) - sum(packetLength(packetDropped))))"
attr title "queue bit length, last"
attr unit b
scalar IEEE_802154_Mobile_Net.slave[0].wlan[0].queue queueBitLength:max nan
attr autoWarmupFilter false
attr interpolationmode sample-hold
attr recordingmode max
attr source "warmup(atomic(constant0(packetPushEnded) + sum(packetLength(packetPushStarted)) - sum(packetLength(packetPulled)) - sum(packetLength(packetRemoved)) - sum(packetLength(packetDropped))))"
attr title "queue bit length, max"
attr unit b
scalar IEEE_802154_Mobile_Net.slave[0].wlan[0].queue queueBitLength:timeavg nan
attr autoWarmupFilter false
attr interpolationmode sample-hold
attr recordingmode timeavg
attr source "warmup(atomic(constant0(packetPushEnded) + sum(packetLength(packetPushStarted)) - sum(packetLength(packetPulled)) - sum(packetLength(packetRemoved)) - sum(packetLength(packetDropped))))"
attr title "queue bit length, timeavg"
attr unit b
statistic IEEE_802154_Mobile_Net.slave[0].wlan[0].queue queueingTime:histogram
field count 0
field mean nan
field stddev nan
field min nan
field max nan
field sum 0
field sqrsum 0
attr interpolationmode none
attr recordingmode histogram
attr source queueingTime(packetPulled)
attr title "queueing times"
attr unit s
bin	-inf	0
bin	0	0
bin	1	0
scalar IEEE_802154_Mobile_Net.slave[0].wlan[0].queue outgoingPackets:count 0
attr recordingmode count
attr source packetPulled
attr title "outgoing packets, count"
attr unit pk
scalar IEEE_802154_Mobile_Net.slave[0].wlan[0].queue outgoingPacketLengths:sum 0
attr interpolationmode none
attr recordingmode sum
attr source packetLength(packetPulled)
attr title "outgoing packet lengths, sum"
attr unit b
statistic IEEE_802154_Mobile_Net.slave[0].wlan[0].queue outgoingPacketLengths:histogram
field count 0
field mean nan
field stddev nan
field min nan
field max nan
field sum 0
field sqrsum 0
attr interpolationmode none
attr recordingmode histogram
attr source packetLength(packetPulled)
attr title "outgoing packet lengths"
attr unit b
bin	-inf	0
bin	0	0
bin	1	0
statistic IEEE_802154_Mobile_Net.slave[0].wlan[0].queue flowQueueingTime:histogram
field count 0
field mean nan
field stddev nan
field min nan
field max nan
field sum 0
field sqrsum 0
attr interpolationmode none
attr recordingmode histogram
attr source queueingTime(demuxFlow(packetPulled))
attr title "flow queueing times"
attr unit s
bin	-inf	0
bin	0	0
bin	1	0
scalar IEEE_802154_Mobile_Net.slave[0].wlan[0].queue incomingPackets:count 0
attr recordingmode count
attr source packetPushStarted
attr title "incoming packets, count"
attr unit pk
scalar IEEE_802154_Mobile_Net.slave[0].wlan[0].queue incomingPacketLengths:sum 0
attr interpolationmode none
attr recordingmode sum
attr source packetLength(packetPushStarted)
attr title "incoming packet lengths, sum"
attr unit b
statistic IEEE_802154_Mobile_Net.slave[0].wlan[0].queue incomingPacketLengths:histogram
field count 0
field mean nan
field stddev nan
field min nan
field max nan
field sum 0
field sqrsum 0
attr interpolationmode none
attr recordingmode histogram
attr source packetLength(packetPushStarted)
attr title "incoming packet lengths"
attr unit b
bin	-inf	0
bin	0	0
bin	1	0
scalar IEEE_802154_Mobile_Net.slave[0].wlan[0].queue droppedPacketsQueueOverflow:count 0
attr interpolationmode none
attr recordingmode count
attr source packetDropReasonIsQueueOverflow(packetDropped)
attr title "dropped packets: queue overflow, count"
attr unit pk
scalar IEEE_802154_Mobile_Net.slave[0].wlan[0].queue droppedPacketLengthsQueueOverflow:sum 0
attr interpolationmode none
attr recordingmode sum
attr source packetLength(packetDropReasonIsQueueOverflow(packetDropped))
attr title "dropped packet lengths: queue overflow, sum"
attr unit b
par IEEE_802154_Mobile_Net.slave[0].wlan[0].mac typename "\"inet.linklayer.ieee802154.Ieee802154NarrowbandMac\""
par IEEE_802154_Mobile_Net.slave[0].wlan[0].mac interfaceTableModule "\"IEEE_802154_Mobile_Net.slave[0].interfaceTable\""
par IEEE_802154_Mobile_Net.slave[0].wlan[0].mac address "\"auto\""
attr mutable ""
par IEEE_802154_Mobile_Net.slave[0].wlan[0].mac headerLength 72b
attr unit b
par IEEE_802154_Mobile_Net.slave[0].wlan[0].mac mtu 118B
attr unit B
par IEEE_802154_Mobile_Net.slave[0].wlan[0].mac bitrate 250000bps
attr unit bps
par IEEE_802154_Mobile_Net.slave[0].wlan[0].mac ccaDetectionTime 0.000128s
attr unit s
par IEEE_802154_Mobile_Net.slave[0].wlan[0].mac rxSetupTime 0s
attr unit s
par IEEE_802154_Mobile_Net.slave[0].wlan[0].mac aTurnaroundTime 0.000192s
attr unit s
par IEEE_802154_Mobile_Net.slave[0].wlan[0].mac useMACAcks true
par IEEE_802154_Mobile_Net.slave[0].wlan[0].mac macMaxFrameRetries 3
par IEEE_802154_Mobile_Net.slave[0].wlan[0].mac macAckWaitDuration 0.00056s
attr unit s
par IEEE_802154_Mobile_Net.slave[0].wlan[0].mac ackLength 40b
attr unit b
par IEEE_802154_Mobile_Net.slave[0].wlan[0].mac sifs 0.000192s
attr unit s
par IEEE_802154_Mobile_Net.slave[0].wlan[0].mac backoffMethod "\"exponential\""
par IEEE_802154_Mobile_Net.slave[0].wlan[0].mac macMaxCSMABackoffs 4
par IEEE_802154_Mobile_Net.slave[0].wlan[0].mac aUnitBackoffPeriod 0.00032s
attr unit s
par IEEE_802154_Mobile_Net.slave[0].wlan[0].mac contentionWindow 2
par IEEE_802154_Mobile_Net.slave[0].wlan[0].mac macMinBE 3
par IEEE_802154_Mobile_Net.slave[0].wlan[0].mac macMaxBE 5
par IEEE_802154_Mobile_Net.slave[0].wlan[0].mac radioModule "\"^.radio\""
scalar IEEE_802154_Mobile_Net.slave[0].wlan[0].mac nbTxFrames 0
scalar IEEE_802154_Mobile_Net.slave[0].wlan[0].mac nbRxFrames 0
scalar IEEE_802154_Mobile_Net.slave[0].wlan[0].mac nbDroppedFrames 0
scalar IEEE_802154_Mobile_Net.slave[0].wlan[0].mac nbMissedAcks 0
scalar IEEE_802154_Mobile_Net.slave[0].wlan[0].mac nbRecvdAcks 0
scalar IEEE_802154_Mobile_Net.slave[0].wlan[0].mac nbTxAcks 0
scalar IEEE_802154_Mobile_Net.slave[0].wlan[0].mac nbDuplicates 0
scalar IEEE_802154_Mobile_Net.slave[0].wlan[0].mac meanBackoff 0
scalar IEEE_802154_Mobile_Net.slave[0].wlan[0].mac nbBackoffs 0
scalar IEEE_802154_Mobile_Net.slave[0].wlan[0].mac backoffDurations 0
scalar IEEE_802154_Mobile_Net.slave[0].wlan[0].mac packetDropNotAddressToUs:count 0
attr interpolationmode none
attr recordingmode count
attr source packetDropReasonIsNotAddressedToUs(packetDropped)
attr title "packet drop: not addressed to us, count"
scalar IEEE_802154_Mobile_Net.slave[0].wlan[0].mac packetDropNotAddressToUs:sum(packetBytes) 0
attr interpolationmode none
attr recordingmode sum(packetBytes)
attr source packetDropReasonIsNotAddressedToUs(packetDropped)
attr title "packet drop: not addressed to us, sum(packetBytes)"
scalar IEEE_802154_Mobile_Net.slave[0].wlan[0].mac packetDropIncorrectlyReceived:count 0
attr interpolationmode none
attr recordingmode count
attr source packetDropReasonIsIncorrectlyReceived(packetDropped)
attr title "packet drop: incorrectly received, count"
scalar IEEE_802154_Mobile_Net.slave[0].wlan[0].mac packetDropIncorrectlyReceived:sum(packetBytes) 0
attr interpolationmode none
attr recordingmode sum(packetBytes)
attr source packetDropReasonIsIncorrectlyReceived(packetDropped)
attr title "packet drop: incorrectly received, sum(packetBytes)"
scalar IEEE_802154_Mobile_Net.slave[0].wlan[0].mac packetDropQueueOverflow:count 0
attr interpolationmode none
attr recordingmode count
attr source packetDropReasonIsQueueOverflow(packetDropped)
attr title "packet drop: queue overflow, count"
scalar IEEE_802154_Mobile_Net.slave[0].wlan[0].mac packetDropQueueOverflow:sum(packetBytes) 0
attr interpolationmode none
attr recordingmode sum(packetBytes)
attr source packetDropReasonIsQueueOverflow(packetDropped)
attr title "packet drop: queue overflow, sum(packetBytes)"
scalar IEEE_802154_Mobile_Net.slave[0].wlan[0].mac packetDropRetryLimitReached:count 0
attr interpolationmode none
attr recordingmode count
attr source packetDropReasonIsRetryLimitReached(packetDropped)
attr title "packet drop: retry limit reached, count"
scalar IEEE_802154_Mobile_Net.slave[0].wlan[0].mac packetDropRetryLimitReached:sum(packetBytes) 0
attr interpolationmode none
attr recordingmode sum(packetBytes)
attr source packetDropReasonIsRetryLimitReached(packetDropped)
attr title "packet drop: retry limit reached, sum(packetBytes)"
scalar IEEE_802154_Mobile_Net.slave[0].wlan[0].mac packetDropBackoffLimitReached:count 0
attr interpolationmode none
attr recordingmode count
attr source packetDropReasonIsCongestion(packetDropped)
attr title "packet drop: backoff limit reached, count"
scalar IEEE_802154_Mobile_Net.slave[0].wlan[0].mac packetDropBackoffLimitReached:sum(packetBytes) 0
attr interpolationmode none
attr recordingmode sum(packetBytes)
attr source packetDropReasonIsCongestion(packetDropped)
attr title "packet drop: backoff limit reached, sum(packetBytes)"
scalar IEEE_802154_Mobile_Net.slave[0].wlan[0].mac linkBroken:count 0
attr interpolationmode none
attr recordingmode count
attr source linkBroken
attr title "link break, count"
par IEEE_802154_Mobile_Net.slave[0].wlan[0].radio.antenna typename "\"inet.physicallayer.wireless.common.antenna.IsotropicAntenna\""
par IEEE_802154_Mobile_Net.slave[0].wlan[0].radio.antenna mobilityModule "\"^.^.^.mobility\""
par IEEE_802154_Mobile_Net.slave[0].wlan[0].radio.antenna numAntennas 1
par IEEE_802154_Mobile_Net.slave[0].wlan[0].radio.transmitter typename "\"inet.physicallayer.wireless.ieee802154.packetlevel.Ieee802154NarrowbandScalarTransmitter\""
par IEEE_802154_Mobile_Net.slave[0].wlan[0].radio.transmitter preambleDuration 0.000128s
attr unit s
par IEEE_802154_Mobile_Net.slave[0].wlan[0].radio.transmitter headerLength 16b
attr unit b
par IEEE_802154_Mobile_Net.slave[0].wlan[0].radio.transmitter bitrate 250000bps
attr unit bps
par IEEE_802154_Mobile_Net.slave[0].wlan[0].radio.transmitter power 0.00224W
attr unit W
par IEEE_802154_Mobile_Net.slave[0].wlan[0].radio.transmitter centerFrequency 2.45e+09Hz
attr unit Hz
par IEEE_802154_Mobile_Net.slave[0].wlan[0].radio.transmitter bandwidth 2.8e+06Hz
attr unit Hz
par IEEE_802154_Mobile_Net.slave[0].wlan[0].radio.transmitter modulation "\"DSSS-OQPSK-16\""
par IEEE_802154_Mobile_Net.slave[0].wlan[0].radio.receiver.errorModel typename "\"inet.physicallayer.wireless.apsk.packetlevel.errormodel.ApskErrorModel\""
par IEEE_802154_Mobile_Net.slave[0].wlan[0].radio.receiver.errorModel corruptionMode "\"packet\""
attr enum packet,chunk,byte,bit
par IEEE_802154_Mobile_Net.slave[0].wlan[0].radio.receiver.errorModel snirMode "\"min\""
attr unit min,mean
par IEEE_802154_Mobile_Net.slave[0].wlan[0].radio.receiver.errorModel snirOffset 0dB
attr unit dB
par IEEE_802154_Mobile_Net.slave[0].wlan[0].radio.receiver typename "\"inet.physicallayer.wireless.ieee802154.packetlevel.Ieee802154NarrowbandScalarReceiver\""
par IEEE_802154_Mobile_Net.slave[0].wlan[0].radio.receiver snirThreshold -8dB
attr unit dB
par IEEE_802154_Mobile_Net.slave[0].wlan[0].radio.receiver snirThresholdMode "\"min\""
attr unit min,mean
par IEEE_802154_Mobile_Net.slave[0].wlan[0].radio.receiver energyDetection -90dBm
attr unit dBm
par IEEE_802154_Mobile_Net.slave[0].wlan[0].radio.receiver sensitivity -100dBm
attr unit dBm
par IEEE_802154_Mobile_Net.slave[0].wlan[0].radio.receiver centerFrequency 2.45e+09Hz
attr unit Hz
par IEEE_802154_Mobile_Net.slave[0].wlan[0].radio.receiver bandwidth 2.8e+06Hz
attr unit Hz
par IEEE_802154_Mobile_Net.slave[0].wlan[0].radio.receiver modulation "\"DSSS-OQPSK-16\""
par IEEE_802154_Mobile_Net.slave[0].wlan[0].radio.receiver minInterferencePower -120dBm
attr unit dBm
par IEEE_802154_Mobile_Net.slave[0].wlan[0].radio typename "\"inet.physicallayer.wireless.ieee802154.packetlevel.Ieee802154NarrowbandScalarRadio\""
par IEEE_802154_Mobile_Net.slave[0].wlan[0].radio radioMediumModule "\"radioMedium\""
par IEEE_802154_Mobile_Net.slave[0].wlan[0].radio energySourceModule "\"\""
par IEEE_802154_Mobile_Net.slave[0].wlan[0].radio initialRadioMode "\"off\""
attr enum off,sleep,receiver,transmitter,transceiver
par IEEE_802154_Mobile_Net.slave[0].wlan[0].radio switchingTimes "\"ms 0 0 0 0 0 0 0 0 0 0 0 0 0 0 0 0 0 0 0 0 0 0 0 0 0\""
par IEEE_802154_Mobile_Net.slave[0].wlan[0].radio sendRawBytes false
par IEEE_802154_Mobile_Net.slave[0].wlan[0].radio separateTransmissionParts false
par IEEE_802154_Mobile_Net.slave[0].wlan[0].radio separateReceptionParts false
par IEEE_802154_Mobile_Net.slave[0].wlan[0].radio displayCommunicationRange false
par IEEE_802154_Mobile_Net.slave[0].wlan[0].radio displayInterferenceRange false
par IEEE_802154_Mobile_Net.slave[0].wlan[0].radio centerFrequency 2.45e+09Hz
attr unit Hz
par IEEE_802154_Mobile_Net.slave[0].wlan[0].radio bandwidth 2.8e+06Hz
attr unit Hz
par IEEE_802154_Mobile_Net.slave[0].wlan[0].radio signalAnalogRepresentation "\"scalar\""
attr enum scalar,dimensional
statistic IEEE_802154_Mobile_Net.slave[0].wlan[0].radio minSnir:histogram
field count 0
field mean nan
field stddev nan
field min nan
field max nan
field sum 0
field sqrsum 0
attr recordingmode histogram
attr source minimumSnir(packetSentToUpper)
attr title "Min SNIR"
bin	-inf	0
bin	0	0
bin	1	0
statistic IEEE_802154_Mobile_Net.slave[0].wlan[0].radio packetErrorRate:histogram
field count 0
field mean nan
field stddev nan
field min nan
field max nan
field sum 0
field sqrsum 0
attr recordingmode histogram
attr source packetErrorRate(packetSentToUpper)
attr title "Packet error rate"
bin	-inf	0
bin	0	0
bin	1	0
statistic IEEE_802154_Mobile_Net.slave[0].wlan[0].radio bitErrorRate:histogram
field count 0
field mean nan
field stddev nan
field min nan
field max nan
field sum 0
field sqrsum 0
attr recordingmode histogram
attr source bitErrorRate(packetSentToUpper)
attr title "Bit error rate"
bin	-inf	0
bin	0	0
bin	1	0
statistic IEEE_802154_Mobile_Net.slave[0].wlan[0].radio symbolErrorRate:histogram
field count 0
field mean nan
field stddev nan
field min nan
field max nan
field sum 0
field sqrsum 0
attr recordingmode histogram
attr source symbolErrorRate(packetSentToUpper)
attr title "Symbol error rate"
bin	-inf	0
bin	0	0
bin	1	0
scalar IEEE_802154_Mobile_Net.slave[0].wlan[0].radio transmissionState:count 0
attr interpolationmode sample-hold
attr recordingmode count
attr source transmissionStateChanged
attr title "Radio transmission state, count"
scalar IEEE_802154_Mobile_Net.slave[0].wlan[0].radio receptionState:count 1
attr interpolationmode sample-hold
attr recordingmode count
attr source receptionStateChanged
attr title "Radio reception state, count"
scalar IEEE_802154_Mobile_Net.slave[0].wlan[0].radio radioMode:count 3
attr interpolationmode sample-hold
attr recordingmode count
attr source radioModeChanged
attr title "Radio mode, count"
par IEEE_802154_Mobile_Net.slave[0].wlan[0] typename "\"inet.linklayer.ieee802154.Ieee802154NarrowbandInterface\""
par IEEE_802154_Mobile_Net.slave[0].wlan[0] displayStringTextFormat "\"%a (%i)\\n%m\""
par IEEE_802154_Mobile_Net.slave[0].wlan[0] recordPcap false
par IEEE_802154_Mobile_Net.slave[0].wlan[0] numPcapRecorders 0
par IEEE_802154_Mobile_Net.slave[0].wlan[0] interfaceTableModule "\"IEEE_802154_Mobile_Net.slave[0].interfaceTable\""
par IEEE_802154_Mobile_Net.slave[0].wlan[0] energySourceModule "\"\""
scalar IEEE_802154_Mobile_Net.slave[0].wlan[0] packetDropInterfaceDown:count 0
attr interpolationmode none
attr recordingmode count
attr source packetDropReasonIsInterfaceDown(packetDropped)
attr title "packet drops: interface down, count"
scalar IEEE_802154_Mobile_Net.slave[0].wlan[0] packetDropInterfaceDown:sum(packetBytes) 0
attr interpolationmode none
attr recordingmode sum(packetBytes)
attr source packetDropReasonIsInterfaceDown(packetDropped)
attr title "packet drops: interface down, sum(packetBytes)"
scalar IEEE_802154_Mobile_Net.slave[0].wlan[0] packetDropNoCarrier:count 0
attr interpolationmode none
attr recordingmode count
attr source packetDropReasonIsNoCarrier(packetDropped)
attr title "packet drops: no carrier, count"
scalar IEEE_802154_Mobile_Net.slave[0].wlan[0] packetDropNoCarrier:sum(packetBytes) 0
attr interpolationmode none
attr recordingmode sum(packetBytes)
attr source packetDropReasonIsNoCarrier(packetDropped)
attr title "packet drops: no carrier, sum(packetBytes)"
par IEEE_802154_Mobile_Net.slave[0].ipv4.transportIn.channel typename "\"ned.IdealChannel\""
par IEEE_802154_Mobile_Net.slave[0].ipv4.up.out[0].channel typename "\"ned.IdealChannel\""
par IEEE_802154_Mobile_Net.slave[0].ipv4.lp.out[2].channel typename "\"ned.IdealChannel\""
par IEEE_802154_Mobile_Net.slave[0].ipv4.ifIn.channel typename "\"ned.IdealChannel\""
par IEEE_802154_Mobile_Net.slave[0].ipv4.configurator typename "\"inet.networklayer.configurator.ipv4.Ipv4NodeConfigurator\""
par IEEE_802154_Mobile_Net.slave[0].ipv4.configurator interfaceTableModule "\"IEEE_802154_Mobile_Net.slave[0].interfaceTable\""
par IEEE_802154_Mobile_Net.slave[0].ipv4.configurator routingTableModule "\"IEEE_802154_Mobile_Net.slave[0].ipv4.routingTable\""
par IEEE_802154_Mobile_Net.slave[0].ipv4.configurator networkConfiguratorModule "\"configurator\""
par IEEE_802154_Mobile_Net.slave[0].ipv4.configurator configureRoutingTable true
par IEEE_802154_Mobile_Net.slave[0].ipv4.routingTable typename "\"inet.networklayer.ipv4.Ipv4RoutingTable\""
par IEEE_802154_Mobile_Net.slave[0].ipv4.routingTable interfaceTableModule "\"IEEE_802154_Mobile_Net.slave[0].interfaceTable\""
par IEEE_802154_Mobile_Net.slave[0].ipv4.routingTable routerId "\"auto\""
par IEEE_802154_Mobile_Net.slave[0].ipv4.routingTable netmaskRoutes "\"\""
par IEEE_802154_Mobile_Net.slave[0].ipv4.routingTable forwarding false
par IEEE_802154_Mobile_Net.slave[0].ipv4.routingTable multicastForwarding false
par IEEE_802154_Mobile_Net.slave[0].ipv4.routingTable useAdminDist false
par IEEE_802154_Mobile_Net.slave[0].ipv4.routingTable routingFile "\"\""
par IEEE_802154_Mobile_Net.slave[0].ipv4.natTable typename "\"inet.networklayer.ipv4.Ipv4NatTable\""
par IEEE_802154_Mobile_Net.slave[0].ipv4.natTable networkProtocolModule "\"^.ip\""
par IEEE_802154_Mobile_Net.slave[0].ipv4.natTable config "<config/> at content:1"
par IEEE_802154_Mobile_Net.slave[0].ipv4.up typename "\"inet.common.MessageDispatcher\""
par IEEE_802154_Mobile_Net.slave[0].ipv4.up displayStringTextFormat "\"processed %p pk (%l)\""
par IEEE_802154_Mobile_Net.slave[0].ipv4.up forwardServiceRegistration true
par IEEE_802154_Mobile_Net.slave[0].ipv4.up forwardProtocolRegistration true
par IEEE_802154_Mobile_Net.slave[0].ipv4.igmp typename "\"inet.networklayer.ipv4.Igmpv2\""
par IEEE_802154_Mobile_Net.slave[0].ipv4.igmp interfaceTableModule "\"IEEE_802154_Mobile_Net.slave[0].interfaceTable\""
par IEEE_802154_Mobile_Net.slave[0].ipv4.igmp routingTableModule "\"IEEE_802154_Mobile_Net.slave[0].ipv4.routingTable\""
par IEEE_802154_Mobile_Net.slave[0].ipv4.igmp crcMode "\"declared\""
attr enum declared,computed
par IEEE_802154_Mobile_Net.slave[0].ipv4.igmp enabled true
par IEEE_802154_Mobile_Net.slave[0].ipv4.igmp robustnessVariable 2
par IEEE_802154_Mobile_Net.slave[0].ipv4.igmp queryInterval 125s
attr unit s
par IEEE_802154_Mobile_Net.slave[0].ipv4.igmp queryResponseInterval 10s
attr unit s
par IEEE_802154_Mobile_Net.slave[0].ipv4.igmp groupMembershipInterval 260s
attr unit s
par IEEE_802154_Mobile_Net.slave[0].ipv4.igmp otherQuerierPresentInterval 255s
attr unit s
par IEEE_802154_Mobile_Net.slave[0].ipv4.igmp startupQueryInterval 31.25s
attr unit s
par IEEE_802154_Mobile_Net.slave[0].ipv4.igmp startupQueryCount 2
par IEEE_802154_Mobile_Net.slave[0].ipv4.igmp lastMemberQueryInterval 1s
attr unit s
par IEEE_802154_Mobile_Net.slave[0].ipv4.igmp lastMemberQueryCount 2
par IEEE_802154_Mobile_Net.slave[0].ipv4.igmp unsolicitedReportInterval 10s
attr unit s
par IEEE_802154_Mobile_Net.slave[0].ipv4.icmp typename "\"inet.networklayer.ipv4.Icmp\""
par IEEE_802154_Mobile_Net.slave[0].ipv4.icmp interfaceTableModule "\"IEEE_802154_Mobile_Net.slave[0].interfaceTable\""
par IEEE_802154_Mobile_Net.slave[0].ipv4.icmp routingTableModule "\"IEEE_802154_Mobile_Net.slave[0].ipv4.routingTable\""
par IEEE_802154_Mobile_Net.slave[0].ipv4.icmp crcMode "\"declared\""
attr enum declared,computed
attr mutable ""
par IEEE_802154_Mobile_Net.slave[0].ipv4.icmp quoteLength 8B
attr mutable ""
attr unit B
par IEEE_802154_Mobile_Net.slave[0].ipv4.mp typename "\"inet.common.MessageDispatcher\""
par IEEE_802154_Mobile_Net.slave[0].ipv4.mp displayStringTextFormat "\"processed %p pk (%l)\""
par IEEE_802154_Mobile_Net.slave[0].ipv4.mp forwardServiceRegistration true
par IEEE_802154_Mobile_Net.slave[0].ipv4.mp forwardProtocolRegistration true
par IEEE_802154_Mobile_Net.slave[0].ipv4.ip typename "\"inet.networklayer.ipv4.Ipv4\""
par IEEE_802154_Mobile_Net.slave[0].ipv4.ip interfaceTableModule "\"IEEE_802154_Mobile_Net.slave[0].interfaceTable\""
par IEEE_802154_Mobile_Net.slave[0].ipv4.ip routingTableModule "\"IEEE_802154_Mobile_Net.slave[0].ipv4.routingTable\""
par IEEE_802154_Mobile_Net.slave[0].ipv4.ip arpModule "\"IEEE_802154_Mobile_Net.slave[0].ipv4.arp\""
par IEEE_802154_Mobile_Net.slave[0].ipv4.ip icmpModule "\"IEEE_802154_Mobile_Net.slave[0].ipv4.icmp\""
par IEEE_802154_Mobile_Net.slave[0].ipv4.ip crcMode "\"declared\""
attr enum declared,computed
par IEEE_802154_Mobile_Net.slave[0].ipv4.ip timeToLive 32
par IEEE_802154_Mobile_Net.slave[0].ipv4.ip multicastTimeToLive 32
par IEEE_802154_Mobile_Net.slave[0].ipv4.ip fragmentTimeout 60s
attr unit s
par IEEE_802154_Mobile_Net.slave[0].ipv4.ip limitedBroadcast false
par IEEE_802154_Mobile_Net.slave[0].ipv4.ip directBroadcastInterfaces "\"\""
scalar IEEE_802154_Mobile_Net.slave[0].ipv4.ip packetDropAddressResolutionFailed:count 0
attr interpolationmode none
attr recordingmode count
attr source packetDropReasonIsAddressResolutionFailed(packetDropped)
attr title "packet drop: address resolution failed, count"
scalar IEEE_802154_Mobile_Net.slave[0].ipv4.ip packetDropAddressResolutionFailed:sum(packetBytes) 0
attr interpolationmode none
attr recordingmode sum(packetBytes)
attr source packetDropReasonIsAddressResolutionFailed(packetDropped)
attr title "packet drop: address resolution failed, sum(packetBytes)"
scalar IEEE_802154_Mobile_Net.slave[0].ipv4.ip packetDropHopLimitReached:count 0
attr interpolationmode none
attr recordingmode count
attr source packetDropReasonIsHopLimitReached(packetDropped)
attr title "packet drop: hop limit reached, count"
scalar IEEE_802154_Mobile_Net.slave[0].ipv4.ip packetDropHopLimitReached:sum(packetBytes) 0
attr interpolationmode none
attr recordingmode sum(packetBytes)
attr source packetDropReasonIsHopLimitReached(packetDropped)
attr title "packet drop: hop limit reached, sum(packetBytes)"
scalar IEEE_802154_Mobile_Net.slave[0].ipv4.ip packetDropForwardingDisabled:count 0
attr interpolationmode none
attr recordingmode count
attr source packetDropReasonIsForwardingDisabled(packetDropped)
attr title "packet drop: forwarding disabled, count"
scalar IEEE_802154_Mobile_Net.slave[0].ipv4.ip packetDropForwardingDisabled:sum(packetBytes) 0
attr interpolationmode none
attr recordingmode sum(packetBytes)
attr source packetDropReasonIsForwardingDisabled(packetDropped)
attr title "packet drop: forwarding disabled, sum(packetBytes)"
scalar IEEE_802154_Mobile_Net.slave[0].ipv4.ip packetDropNoInterfaceFound:count 0
attr interpolationmode none
attr recordingmode count
attr source packetDropReasonIsNoInterfaceFound(packetDropped)
attr title "packet drop: no interface found, count"
scalar IEEE_802154_Mobile_Net.slave[0].ipv4.ip packetDropNoInterfaceFound:sum(packetBytes) 0
attr interpolationmode none
attr recordingmode sum(packetBytes)
attr source packetDropReasonIsNoInterfaceFound(packetDropped)
attr title "packet drop: no interface found, sum(packetBytes)"
scalar IEEE_802154_Mobile_Net.slave[0].ipv4.ip packetDropNoRouteFound:count 0
attr interpolationmode none
attr recordingmode count
attr source packetDropReasonIsNoRouteFound(packetDropped)
attr title "packet drop: no route found, count"
scalar IEEE_802154_Mobile_Net.slave[0].ipv4.ip packetDropNoRouteFound:sum(packetBytes) 0
attr interpolationmode none
attr recordingmode sum(packetBytes)
attr source packetDropReasonIsNoRouteFound(packetDropped)
attr title "packet drop: no route found, sum(packetBytes)"
scalar IEEE_802154_Mobile_Net.slave[0].ipv4.ip packetDropUndefined:count 0
attr interpolationmode none
attr recordingmode count
attr source packetDropReasonIsUndefined(packetDropped)
attr title "packet drop: undefined, count"
scalar IEEE_802154_Mobile_Net.slave[0].ipv4.ip packetDropUndefined:sum(packetBytes) 0
attr interpolationmode none
attr recordingmode sum(packetBytes)
attr source packetDropReasonIsUndefined(packetDropped)
attr title "packet drop: undefined, sum(packetBytes)"
par IEEE_802154_Mobile_Net.slave[0].ipv4.arp typename "\"inet.networklayer.arp.ipv4.GlobalArp\""
par IEEE_802154_Mobile_Net.slave[0].ipv4.arp interfaceTableModule "\"IEEE_802154_Mobile_Net.slave[0].interfaceTable\""
par IEEE_802154_Mobile_Net.slave[0].ipv4.arp addressType "\"ipv4\""
attr enum ipv4,ipv6,mac,moduleid,modulepath
par IEEE_802154_Mobile_Net.slave[0].ipv4.lp typename "\"inet.common.MessageDispatcher\""
par IEEE_802154_Mobile_Net.slave[0].ipv4.lp displayStringTextFormat "\"processed %p pk (%l)\""
par IEEE_802154_Mobile_Net.slave[0].ipv4.lp forwardServiceRegistration true
par IEEE_802154_Mobile_Net.slave[0].ipv4.lp forwardProtocolRegistration true
par IEEE_802154_Mobile_Net.slave[0].ipv4 typename "\"inet.networklayer.ipv4.Ipv4NetworkLayer\""
par IEEE_802154_Mobile_Net.slave[0].ipv4 forwarding false
par IEEE_802154_Mobile_Net.slave[0].ipv4 multicastForwarding false
par IEEE_802154_Mobile_Net.slave[0].ipv4 interfaceTableModule "\"IEEE_802154_Mobile_Net.slave[0].interfaceTable\""
par IEEE_802154_Mobile_Net.slave[0].ipv4 displayStringTextFormat "\"%i\""
par IEEE_802154_Mobile_Net.slave[0].nl typename "\"inet.common.MessageDispatcher\""
par IEEE_802154_Mobile_Net.slave[0].nl displayStringTextFormat "\"processed %p pk (%l)\""
par IEEE_802154_Mobile_Net.slave[0].nl forwardServiceRegistration true
par IEEE_802154_Mobile_Net.slave[0].nl forwardProtocolRegistration true
par IEEE_802154_Mobile_Net.slave[0].udp typename "\"inet.transportlayer.udp.Udp\""
par IEEE_802154_Mobile_Net.slave[0].udp interfaceTableModule "\"IEEE_802154_Mobile_Net.slave[0].interfaceTable\""
par IEEE_802154_Mobile_Net.slave[0].udp icmpModule "\"^.ipv4.icmp\""
par IEEE_802154_Mobile_Net.slave[0].udp icmpv6Module "\"^.ipv6.icmpv6\""
par IEEE_802154_Mobile_Net.slave[0].udp crcMode "\"declared\""
attr enum disabled,declared,computed
par IEEE_802154_Mobile_Net.slave[0].udp defaultMulticastLoop true
scalar IEEE_802154_Mobile_Net.slave[0].udp packetReceived:count 0
attr interpolationmode none
attr recordingmode count
attr source packetReceived
attr title "packets received, count"
scalar IEEE_802154_Mobile_Net.slave[0].udp packetReceived:sum(packetBytes) 0
attr interpolationmode none
attr recordingmode sum(packetBytes)
attr source packetReceived
attr title "packets received, sum(packetBytes)"
scalar IEEE_802154_Mobile_Net.slave[0].udp packetSent:count 0
attr interpolationmode none
attr recordingmode count
attr source packetSent
attr title "packets sent, count"
scalar IEEE_802154_Mobile_Net.slave[0].udp packetSent:sum(packetBytes) 0
attr interpolationmode none
attr recordingmode sum(packetBytes)
attr source packetSent
attr title "packets sent, sum(packetBytes)"
scalar IEEE_802154_Mobile_Net.slave[0].udp passedUpPk:count 0
attr interpolationmode none
attr recordingmode count
attr source packetSentToUpper
attr title "packets passed up, count"
scalar IEEE_802154_Mobile_Net.slave[0].udp droppedPkWrongPort:count 0
attr interpolationmode none
attr recordingmode count
attr source packetDropReasonIsNoPortFound(packetDropped)
attr title "packets dropped (wrong port), count"
scalar IEEE_802154_Mobile_Net.slave[0].udp droppedPkBadChecksum:count 0
attr interpolationmode none
attr recordingmode count
attr source packetDropReasonIsIncorrectlyReceived(packetDropped)
attr title "packets dropped (checksum error), count"
par IEEE_802154_Mobile_Net.slave[0].tcp typename "\"inet.transportlayer.tcp.Tcp\""
par IEEE_802154_Mobile_Net.slave[0].tcp crcMode "\"declared\""
attr enum declared,computed
par IEEE_802154_Mobile_Net.slave[0].tcp advertisedWindow 7504
par IEEE_802154_Mobile_Net.slave[0].tcp delayedAcksEnabled false
par IEEE_802154_Mobile_Net.slave[0].tcp nagleEnabled true
par IEEE_802154_Mobile_Net.slave[0].tcp limitedTransmitEnabled false
par IEEE_802154_Mobile_Net.slave[0].tcp increasedIWEnabled false
par IEEE_802154_Mobile_Net.slave[0].tcp sackSupport false
par IEEE_802154_Mobile_Net.slave[0].tcp windowScalingSupport false
par IEEE_802154_Mobile_Net.slave[0].tcp windowScalingFactor -1
par IEEE_802154_Mobile_Net.slave[0].tcp timestampSupport false
par IEEE_802154_Mobile_Net.slave[0].tcp mss 536
par IEEE_802154_Mobile_Net.slave[0].tcp msl 120s
attr unit s
par IEEE_802154_Mobile_Net.slave[0].tcp tcpAlgorithmClass "\"TcpReno\""
attr enum TcpVegas,TcpWestwood,TcpNewReno,TcpReno,TcpTahoe,TcpNoCongestionControl
par IEEE_802154_Mobile_Net.slave[0].tcp useDataNotification false
par IEEE_802154_Mobile_Net.slave[0].tcp dupthresh 3
par IEEE_802154_Mobile_Net.slave[0].tcp initialSsthresh 4294967295
par IEEE_802154_Mobile_Net.slave[0].tcp stopOperationExtraTime 0s
attr unit s
par IEEE_802154_Mobile_Net.slave[0].tcp stopOperationTimeout 2s
attr unit s
par IEEE_802154_Mobile_Net.slave[0].tcp ecnWillingness false
par IEEE_802154_Mobile_Net.slave[0].tcp dctcpGamma 0.0625
par IEEE_802154_Mobile_Net.slave[0].tn typename "\"inet.common.MessageDispatcher\""
par IEEE_802154_Mobile_Net.slave[0].tn displayStringTextFormat "\"processed %p pk (%l)\""
par IEEE_802154_Mobile_Net.slave[0].tn forwardServiceRegistration true
par IEEE_802154_Mobile_Net.slave[0].tn forwardProtocolRegistration true
par IEEE_802154_Mobile_Net.slave[0].app[0] typename "\"inet.applications.udpapp.UdpBasicApp\""
par IEEE_802154_Mobile_Net.slave[0].app[0] interfaceTableModule "\"IEEE_802154_Mobile_Net.slave[0].interfaceTable\""
par IEEE_802154_Mobile_Net.slave[0].app[0] clockModule "\"\""
par IEEE_802154_Mobile_Net.slave[0].app[0] localPort -1
par IEEE_802154_Mobile_Net.slave[0].app[0] destAddresses "\"master\""
par IEEE_802154_Mobile_Net.slave[0].app[0] localAddress "\"\""
par IEEE_802154_Mobile_Net.slave[0].app[0] packetName "\"UdpBasicAppData\""
par IEEE_802154_Mobile_Net.slave[0].app[0] destPort 1000
par IEEE_802154_Mobile_Net.slave[0].app[0] messageLength 10B
attr unit B
par IEEE_802154_Mobile_Net.slave[0].app[0] startTime 0s
attr unit s
par IEEE_802154_Mobile_Net.slave[0].app[0] stopTime -1s
attr unit s
par IEEE_802154_Mobile_Net.slave[0].app[0] sendInterval 1s
attr unit s
par IEEE_802154_Mobile_Net.slave[0].app[0] timeToLive -1
par IEEE_802154_Mobile_Net.slave[0].app[0] dontFragment false
par IEEE_802154_Mobile_Net.slave[0].app[0] dscp -1
par IEEE_802154_Mobile_Net.slave[0].app[0] tos -1
par IEEE_802154_Mobile_Net.slave[0].app[0] multicastInterface "\"\""
par IEEE_802154_Mobile_Net.slave[0].app[0] receiveBroadcast false
par IEEE_802154_Mobile_Net.slave[0].app[0] joinLocalMulticastGroups false
par IEEE_802154_Mobile_Net.slave[0].app[0] stopOperationExtraTime -1s
attr unit s
par IEEE_802154_Mobile_Net.slave[0].app[0] stopOperationTimeout 2s
attr unit s
scalar IEEE_802154_Mobile_Net.slave[0].app[0] "packets sent" 1
scalar IEEE_802154_Mobile_Net.slave[0].app[0] "packets received" 0
scalar IEEE_802154_Mobile_Net.slave[0].app[0] packetReceived:count 0
attr interpolationmode none
attr recordingmode count
attr source packetReceived
attr title "packets received, count"
scalar IEEE_802154_Mobile_Net.slave[0].app[0] packetReceived:sum(packetBytes) 0
attr interpolationmode none
attr recordingmode sum(packetBytes)
attr source packetReceived
attr title "packets received, sum(packetBytes)"
statistic IEEE_802154_Mobile_Net.slave[0].app[0] rcvdPkLifetime:stats
field count 0
field mean nan
field stddev nan
field min nan
field max nan
field sum 0
field sqrsum 0
attr interpolationmode none
attr recordingmode stats
attr source dataAge(packetReceived)
attr title "received packet lifetime"
attr unit s
scalar IEEE_802154_Mobile_Net.slave[0].app[0] packetSent:count 1
attr interpolationmode none
attr recordingmode count
attr source packetSent
attr title "packets sent, count"
scalar IEEE_802154_Mobile_Net.slave[0].app[0] packetSent:sum(packetBytes) 10
attr interpolationmode none
attr recordingmode sum(packetBytes)
attr source packetSent
attr title "packets sent, sum(packetBytes)"
par IEEE_802154_Mobile_Net.slave[0].at typename "\"inet.common.MessageDispatcher\""
par IEEE_802154_Mobile_Net.slave[0].at displayStringTextFormat "\"processed %p pk (%l)\""
par IEEE_802154_Mobile_Net.slave[0].at forwardServiceRegistration true
par IEEE_802154_Mobile_Net.slave[0].at forwardProtocolRegistration true
par IEEE_802154_Mobile_Net.slave[0] typename "\"inet.node.inet.StandardHost\""
par IEEE_802154_Mobile_Net.slave[0] hasStatus false
par IEEE_802154_Mobile_Net.slave[0] osgModel "\"\""
par IEEE_802154_Mobile_Net.slave[0] osgModelColor "\"\""
par IEEE_802154_Mobile_Net.slave[0] canvasImage "\"\""
par IEEE_802154_Mobile_Net.slave[0] canvasImageColor "\"\""
par IEEE_802154_Mobile_Net.slave[0] recordPcap false
par IEEE_802154_Mobile_Net.slave[0] numPcapRecorders 0
par IEEE_802154_Mobile_Net.slave[0] numLoInterfaces 1
par IEEE_802154_Mobile_Net.slave[0] numWlanInterfaces 1
par IEEE_802154_Mobile_Net.slave[0] numEthInterfaces 0
par IEEE_802154_Mobile_Net.slave[0] numPppInterfaces 0
par IEEE_802154_Mobile_Net.slave[0] numTunInterfaces 0
par IEEE_802154_Mobile_Net.slave[0] numVirtInterfaces 0
par IEEE_802154_Mobile_Net.slave[0] fcsMode "\"declared\""
attr enum declared,computed
par IEEE_802154_Mobile_Net.slave[0] hasIpv4 true
par IEEE_802154_Mobile_Net.slave[0] hasIpv6 false
par IEEE_802154_Mobile_Net.slave[0] hasGn false
par IEEE_802154_Mobile_Net.slave[0] forwarding false
par IEEE_802154_Mobile_Net.slave[0] multicastForwarding false
par IEEE_802154_Mobile_Net.slave[0] hasUdp true
par IEEE_802154_Mobile_Net.slave[0] hasTcp true
par IEEE_802154_Mobile_Net.slave[0] hasSctp false
par IEEE_802154_Mobile_Net.slave[0] numApps 1
par IEEE_802154_Mobile_Net.slave[1].radioIn[0].channel typename "\"ned.IdealChannel\""
par IEEE_802154_Mobile_Net.slave[1].mobility typename "\"inet.mobility.single.GaussMarkovMobility\""
par IEEE_802154_Mobile_Net.slave[1].mobility subjectModule "\"^\""
par IEEE_802154_Mobile_Net.slave[1].mobility coordinateSystemModule "\"\""
par IEEE_802154_Mobile_Net.slave[1].mobility displayStringTextFormat "\"p: %p\\nv: %v\""
attr mutable ""
par IEEE_802154_Mobile_Net.slave[1].mobility updateDisplayString true
par IEEE_802154_Mobile_Net.slave[1].mobility constraintAreaMinX 50m
attr unit m
par IEEE_802154_Mobile_Net.slave[1].mobility constraintAreaMinY 50m
attr unit m
par IEEE_802154_Mobile_Net.slave[1].mobility constraintAreaMinZ 0m
attr unit m
par IEEE_802154_Mobile_Net.slave[1].mobility constraintAreaMaxX 1050m
attr unit m
par IEEE_802154_Mobile_Net.slave[1].mobility constraintAreaMaxY 1050m
attr unit m
par IEEE_802154_Mobile_Net.slave[1].mobility constraintAreaMaxZ 0m
attr unit m
par IEEE_802154_Mobile_Net.slave[1].mobility updateInterval 0.3s
attr unit s
par IEEE_802154_Mobile_Net.slave[1].mobility faceForward true
par IEEE_802154_Mobile_Net.slave[1].mobility alpha 0.5
par IEEE_802154_Mobile_Net.slave[1].mobility speed 20mps
attr unit mps
par IEEE_802154_Mobile_Net.slave[1].mobility speedStdDev 5mps
attr unit mps
par IEEE_802154_Mobile_Net.slave[1].mobility angle 106.712deg
attr unit deg
par IEEE_802154_Mobile_Net.slave[1].mobility angleStdDev 30deg
attr unit deg
par IEEE_802154_Mobile_Net.slave[1].mobility margin 10m
attr unit m
par IEEE_802154_Mobile_Net.slave[1].interfaceTable typename "\"inet.networklayer.common.InterfaceTable\""
par IEEE_802154_Mobile_Net.slave[1].interfaceTable displayAddresses false
par IEEE_802154_Mobile_Net.slave[1].cb typename "\"inet.common.MessageDispatcher\""
par IEEE_802154_Mobile_Net.slave[1].cb displayStringTextFormat "\"processed %p pk (%l)\""
par IEEE_802154_Mobile_Net.slave[1].cb forwardServiceRegistration true
par IEEE_802154_Mobile_Net.slave[1].cb forwardProtocolRegistration true
par IEEE_802154_Mobile_Net.slave[1].bl typename "\"inet.common.MessageDispatcher\""
par IEEE_802154_Mobile_Net.slave[1].bl displayStringTextFormat "\"processed %p pk (%l)\""
par IEEE_802154_Mobile_Net.slave[1].bl forwardServiceRegistration true
par IEEE_802154_Mobile_Net.slave[1].bl forwardProtocolRegistration true
par IEEE_802154_Mobile_Net.slave[1].li typename "\"inet.common.MessageDispatcher\""
par IEEE_802154_Mobile_Net.slave[1].li displayStringTextFormat "\"processed %p pk (%l)\""
par IEEE_802154_Mobile_Net.slave[1].li forwardServiceRegistration true
par IEEE_802154_Mobile_Net.slave[1].li forwardProtocolRegistration true
par IEEE_802154_Mobile_Net.slave[1].lo[0].upperLayerIn.channel typename "\"ned.IdealChannel\""
par IEEE_802154_Mobile_Net.slave[1].lo[0].lo.upperLayerOut.channel typename "\"ned.IdealChannel\""
par IEEE_802154_Mobile_Net.slave[1].lo[0].lo typename "\"inet.linklayer.loopback.Loopback\""
par IEEE_802154_Mobile_Net.slave[1].lo[0].lo interfaceTableModule "\"IEEE_802154_Mobile_Net.slave[1].interfaceTable\""
par IEEE_802154_Mobile_Net.slave[1].lo[0].lo mtu 4470B
attr unit B
scalar IEEE_802154_Mobile_Net.slave[1].lo[0].lo rcvdPkFromHl:count 0
attr interpolationmode none
attr recordingmode count
attr source packetReceivedFromUpper
attr title "packets received from higher layer, count"
scalar IEEE_802154_Mobile_Net.slave[1].lo[0].lo rcvdPkFromHl:sum(packetBytes) 0
attr interpolationmode none
attr recordingmode sum(packetBytes)
attr source packetReceivedFromUpper
attr title "packets received from higher layer, sum(packetBytes)"
scalar IEEE_802154_Mobile_Net.slave[1].lo[0].lo passedUpPk:count 0
attr interpolationmode none
attr recordingmode count
attr source packetSentToUpper
attr title "packets passed to higher layer, count"
scalar IEEE_802154_Mobile_Net.slave[1].lo[0].lo passedUpPk:sum(packetBytes) 0
attr interpolationmode none
attr recordingmode sum(packetBytes)
attr source packetSentToUpper
attr title "packets passed to higher layer, sum(packetBytes)"
par IEEE_802154_Mobile_Net.slave[1].lo[0] typename "\"inet.linklayer.loopback.LoopbackInterface\""
par IEEE_802154_Mobile_Net.slave[1].lo[0] displayStringTextFormat "\"%a (%i)\\n%m\""
par IEEE_802154_Mobile_Net.slave[1].lo[0] recordPcap false
par IEEE_802154_Mobile_Net.slave[1].lo[0] numPcapRecorders 0
par IEEE_802154_Mobile_Net.slave[1].lo[0] interfaceTableModule "\"IEEE_802154_Mobile_Net.slave[1].interfaceTable\""
scalar IEEE_802154_Mobile_Net.slave[1].lo[0] packetDropInterfaceDown:count 0
attr interpolationmode none
attr recordingmode count
attr source packetDropReasonIsInterfaceDown(packetDropped)
attr title "packet drops: interface down, count"
scalar IEEE_802154_Mobile_Net.slave[1].lo[0] packetDropInterfaceDown:sum(packetBytes) 0
attr interpolationmode none
attr recordingmode sum(packetBytes)
attr source packetDropReasonIsInterfaceDown(packetDropped)
attr title "packet drops: interface down, sum(packetBytes)"
scalar IEEE_802154_Mobile_Net.slave[1].lo[0] packetDropNoCarrier:count 0
attr interpolationmode none
attr recordingmode count
attr source packetDropReasonIsNoCarrier(packetDropped)
attr title "packet drops: no carrier, count"
scalar IEEE_802154_Mobile_Net.slave[1].lo[0] packetDropNoCarrier:sum(packetBytes) 0
attr interpolationmode none
attr recordingmode sum(packetBytes)
attr source packetDropReasonIsNoCarrier(packetDropped)
attr title "packet drops: no carrier, sum(packetBytes)"
par IEEE_802154_Mobile_Net.slave[1].wlan[0].upperLayerIn.channel typename "\"ned.IdealChannel\""
par IEEE_802154_Mobile_Net.slave[1].wlan[0].radioIn.channel typename "\"ned.IdealChannel\""
par IEEE_802154_Mobile_Net.slave[1].wlan[0].mac.upperLayerOut.channel typename "\"ned.IdealChannel\""
par IEEE_802154_Mobile_Net.slave[1].wlan[0].queue typename "\"inet.queueing.queue.DropTailQueue\""
par IEEE_802154_Mobile_Net.slave[1].wlan[0].queue displayStringTextFormat "\"contains %p pk (%l) pushed %u\\npulled %o removed %r dropped %d\""
par IEEE_802154_Mobile_Net.slave[1].wlan[0].queue packetCapacity 100
par IEEE_802154_Mobile_Net.slave[1].wlan[0].queue dataCapacity -1b
attr unit b
par IEEE_802154_Mobile_Net.slave[1].wlan[0].queue dropperClass "\"inet::queueing::PacketAtCollectionEndDropper\""
par IEEE_802154_Mobile_Net.slave[1].wlan[0].queue comparatorClass "\"\""
par IEEE_802154_Mobile_Net.slave[1].wlan[0].queue bufferModule "\"\""
scalar IEEE_802154_Mobile_Net.slave[1].wlan[0].queue queueLength:last nan
attr autoWarmupFilter false
attr interpolationmode sample-hold
attr recordingmode last
attr source "warmup(atomic(constant0(packetPushEnded) + count(packetPushStarted) - count(packetPulled) - count(packetRemoved) - count(packetDropped)))"
attr title "queue length, last"
attr unit pk
scalar IEEE_802154_Mobile_Net.slave[1].wlan[0].queue queueLength:max nan
attr autoWarmupFilter false
attr interpolationmode sample-hold
attr recordingmode max
attr source "warmup(atomic(constant0(packetPushEnded) + count(packetPushStarted) - count(packetPulled) - count(packetRemoved) - count(packetDropped)))"
attr title "queue length, max"
attr unit pk
scalar IEEE_802154_Mobile_Net.slave[1].wlan[0].queue queueLength:timeavg nan
attr autoWarmupFilter false
attr interpolationmode sample-hold
attr recordingmode timeavg
attr source "warmup(atomic(constant0(packetPushEnded) + count(packetPushStarted) - count(packetPulled) - count(packetRemoved) - count(packetDropped)))"
attr title "queue length, timeavg"
attr unit pk
scalar IEEE_802154_Mobile_Net.slave[1].wlan[0].queue queueBitLength:last nan
attr autoWarmupFilter false
attr interpolationmode sample-hold
attr recordingmode last
attr source "warmup(atomic(constant0(packetPushEnded) + sum(packetLength(packetPushStarted)) - sum(packetLength(packetPulled)) - sum(packetLength(packetRemoved)) - sum(packetLength(packetDropped))))"
attr title "queue bit length, last"
attr unit b
scalar IEEE_802154_Mobile_Net.slave[1].wlan[0].queue queueBitLength:max nan
attr autoWarmupFilter false
attr interpolationmode sample-hold
attr recordingmode max
attr source "warmup(atomic(constant0(packetPushEnded) + sum(packetLength(packetPushStarted)) - sum(packetLength(packetPulled)) - sum(packetLength(packetRemoved)) - sum(packetLength(packetDropped))))"
attr title "queue bit length, max"
attr unit b
scalar IEEE_802154_Mobile_Net.slave[1].wlan[0].queue queueBitLength:timeavg nan
attr autoWarmupFilter false
attr interpolationmode sample-hold
attr recordingmode timeavg
attr source "warmup(atomic(constant0(packetPushEnded) + sum(packetLength(packetPushStarted)) - sum(packetLength(packetPulled)) - sum(packetLength(packetRemoved)) - sum(packetLength(packetDropped))))"
attr title "queue bit length, timeavg"
attr unit b
statistic IEEE_802154_Mobile_Net.slave[1].wlan[0].queue queueingTime:histogram
field count 0
field mean nan
field stddev nan
field min nan
field max nan
field sum 0
field sqrsum 0
attr interpolationmode none
attr recordingmode histogram
attr source queueingTime(packetPulled)
attr title "queueing times"
attr unit s
bin	-inf	0
bin	0	0
bin	1	0
scalar IEEE_802154_Mobile_Net.slave[1].wlan[0].queue outgoingPackets:count 0
attr recordingmode count
attr source packetPulled
attr title "outgoing packets, count"
attr unit pk
scalar IEEE_802154_Mobile_Net.slave[1].wlan[0].queue outgoingPacketLengths:sum 0
attr interpolationmode none
attr recordingmode sum
attr source packetLength(packetPulled)
attr title "outgoing packet lengths, sum"
attr unit b
statistic IEEE_802154_Mobile_Net.slave[1].wlan[0].queue outgoingPacketLengths:histogram
field count 0
field mean nan
field stddev nan
field min nan
field max nan
field sum 0
field sqrsum 0
attr interpolationmode none
attr recordingmode histogram
attr source packetLength(packetPulled)
attr title "outgoing packet lengths"
attr unit b
bin	-inf	0
bin	0	0
bin	1	0
statistic IEEE_802154_Mobile_Net.slave[1].wlan[0].queue flowQueueingTime:histogram
field count 0
field mean nan
field stddev nan
field min nan
field max nan
field sum 0
field sqrsum 0
attr interpolationmode none
attr recordingmode histogram
attr source queueingTime(demuxFlow(packetPulled))
attr title "flow queueing times"
attr unit s
bin	-inf	0
bin	0	0
bin	1	0
scalar IEEE_802154_Mobile_Net.slave[1].wlan[0].queue incomingPackets:count 0
attr recordingmode count
attr source packetPushStarted
attr title "incoming packets, count"
attr unit pk
scalar IEEE_802154_Mobile_Net.slave[1].wlan[0].queue incomingPacketLengths:sum 0
attr interpolationmode none
attr recordingmode sum
attr source packetLength(packetPushStarted)
attr title "incoming packet lengths, sum"
attr unit b
statistic IEEE_802154_Mobile_Net.slave[1].wlan[0].queue incomingPacketLengths:histogram
field count 0
field mean nan
field stddev nan
field min nan
field max nan
field sum 0
field sqrsum 0
attr interpolationmode none
attr recordingmode histogram
attr source packetLength(packetPushStarted)
attr title "incoming packet lengths"
attr unit b
bin	-inf	0
bin	0	0
bin	1	0
scalar IEEE_802154_Mobile_Net.slave[1].wlan[0].queue droppedPacketsQueueOverflow:count 0
attr interpolationmode none
attr recordingmode count
attr source packetDropReasonIsQueueOverflow(packetDropped)
attr title "dropped packets: queue overflow, count"
attr unit pk
scalar IEEE_802154_Mobile_Net.slave[1].wlan[0].queue droppedPacketLengthsQueueOverflow:sum 0
attr interpolationmode none
attr recordingmode sum
attr source packetLength(packetDropReasonIsQueueOverflow(packetDropped))
attr title "dropped packet lengths: queue overflow, sum"
attr unit b
par IEEE_802154_Mobile_Net.slave[1].wlan[0].mac typename "\"inet.linklayer.ieee802154.Ieee802154NarrowbandMac\""
par IEEE_802154_Mobile_Net.slave[1].wlan[0].mac interfaceTableModule "\"IEEE_802154_Mobile_Net.slave[1].interfaceTable\""
par IEEE_802154_Mobile_Net.slave[1].wlan[0].mac address "\"auto\""
attr mutable ""
par IEEE_802154_Mobile_Net.slave[1].wlan[0].mac headerLength 72b
attr unit b
par IEEE_802154_Mobile_Net.slave[1].wlan[0].mac mtu 118B
attr unit B
par IEEE_802154_Mobile_Net.slave[1].wlan[0].mac bitrate 250000bps
attr unit bps
par IEEE_802154_Mobile_Net.slave[1].wlan[0].mac ccaDetectionTime 0.000128s
attr unit s
par IEEE_802154_Mobile_Net.slave[1].wlan[0].mac rxSetupTime 0s
attr unit s
par IEEE_802154_Mobile_Net.slave[1].wlan[0].mac aTurnaroundTime 0.000192s
attr unit s
par IEEE_802154_Mobile_Net.slave[1].wlan[0].mac useMACAcks true
par IEEE_802154_Mobile_Net.slave[1].wlan[0].mac macMaxFrameRetries 3
par IEEE_802154_Mobile_Net.slave[1].wlan[0].mac macAckWaitDuration 0.00056s
attr unit s
par IEEE_802154_Mobile_Net.slave[1].wlan[0].mac ackLength 40b
attr unit b
par IEEE_802154_Mobile_Net.slave[1].wlan[0].mac sifs 0.000192s
attr unit s
par IEEE_802154_Mobile_Net.slave[1].wlan[0].mac backoffMethod "\"exponential\""
par IEEE_802154_Mobile_Net.slave[1].wlan[0].mac macMaxCSMABackoffs 4
par IEEE_802154_Mobile_Net.slave[1].wlan[0].mac aUnitBackoffPeriod 0.00032s
attr unit s
par IEEE_802154_Mobile_Net.slave[1].wlan[0].mac contentionWindow 2
par IEEE_802154_Mobile_Net.slave[1].wlan[0].mac macMinBE 3
par IEEE_802154_Mobile_Net.slave[1].wlan[0].mac macMaxBE 5
par IEEE_802154_Mobile_Net.slave[1].wlan[0].mac radioModule "\"^.radio\""
scalar IEEE_802154_Mobile_Net.slave[1].wlan[0].mac nbTxFrames 0
scalar IEEE_802154_Mobile_Net.slave[1].wlan[0].mac nbRxFrames 0
scalar IEEE_802154_Mobile_Net.slave[1].wlan[0].mac nbDroppedFrames 0
scalar IEEE_802154_Mobile_Net.slave[1].wlan[0].mac nbMissedAcks 0
scalar IEEE_802154_Mobile_Net.slave[1].wlan[0].mac nbRecvdAcks 0
scalar IEEE_802154_Mobile_Net.slave[1].wlan[0].mac nbTxAcks 0
scalar IEEE_802154_Mobile_Net.slave[1].wlan[0].mac nbDuplicates 0
scalar IEEE_802154_Mobile_Net.slave[1].wlan[0].mac meanBackoff 0
scalar IEEE_802154_Mobile_Net.slave[1].wlan[0].mac nbBackoffs 0
scalar IEEE_802154_Mobile_Net.slave[1].wlan[0].mac backoffDurations 0
scalar IEEE_802154_Mobile_Net.slave[1].wlan[0].mac packetDropNotAddressToUs:count 0
attr interpolationmode none
attr recordingmode count
attr source packetDropReasonIsNotAddressedToUs(packetDropped)
attr title "packet drop: not addressed to us, count"
scalar IEEE_802154_Mobile_Net.slave[1].wlan[0].mac packetDropNotAddressToUs:sum(packetBytes) 0
attr interpolationmode none
attr recordingmode sum(packetBytes)
attr source packetDropReasonIsNotAddressedToUs(packetDropped)
attr title "packet drop: not addressed to us, sum(packetBytes)"
scalar IEEE_802154_Mobile_Net.slave[1].wlan[0].mac packetDropIncorrectlyReceived:count 0
attr interpolationmode none
attr recordingmode count
attr source packetDropReasonIsIncorrectlyReceived(packetDropped)
attr title "packet drop: incorrectly received, count"
scalar IEEE_802154_Mobile_Net.slave[1].wlan[0].mac packetDropIncorrectlyReceived:sum(packetBytes) 0
attr interpolationmode none
attr recordingmode sum(packetBytes)
attr source packetDropReasonIsIncorrectlyReceived(packetDropped)
attr title "packet drop: incorrectly received, sum(packetBytes)"
scalar IEEE_802154_Mobile_Net.slave[1].wlan[0].mac packetDropQueueOverflow:count 0
attr interpolationmode none
attr recordingmode count
attr source packetDropReasonIsQueueOverflow(packetDropped)
attr title "packet drop: queue overflow, count"
scalar IEEE_802154_Mobile_Net.slave[1].wlan[0].mac packetDropQueueOverflow:sum(packetBytes) 0
attr interpolationmode none
attr recordingmode sum(packetBytes)
attr source packetDropReasonIsQueueOverflow(packetDropped)
attr title "packet drop: queue overflow, sum(packetBytes)"
scalar IEEE_802154_Mobile_Net.slave[1].wlan[0].mac packetDropRetryLimitReached:count 0
attr interpolationmode none
attr recordingmode count
attr source packetDropReasonIsRetryLimitReached(packetDropped)
attr title "packet drop: retry limit reached, count"
scalar IEEE_802154_Mobile_Net.slave[1].wlan[0].mac packetDropRetryLimitReached:sum(packetBytes) 0
attr interpolationmode none
attr recordingmode sum(packetBytes)
attr source packetDropReasonIsRetryLimitReached(packetDropped)
attr title "packet drop: retry limit reached, sum(packetBytes)"
scalar IEEE_802154_Mobile_Net.slave[1].wlan[0].mac packetDropBackoffLimitReached:count 0
attr interpolationmode none
attr recordingmode count
attr source packetDropReasonIsCongestion(packetDropped)
attr title "packet drop: backoff limit reached, count"
scalar IEEE_802154_Mobile_Net.slave[1].wlan[0].mac packetDropBackoffLimitReached:sum(packetBytes) 0
attr interpolationmode none
attr recordingmode sum(packetBytes)
attr source packetDropReasonIsCongestion(packetDropped)
attr title "packet drop: backoff limit reached, sum(packetBytes)"
scalar IEEE_802154_Mobile_Net.slave[1].wlan[0].mac linkBroken:count 0
attr interpolationmode none
attr recordingmode count
attr source linkBroken
attr title "link break, count"
par IEEE_802154_Mobile_Net.slave[1].wlan[0].radio.antenna typename "\"inet.physicallayer.wireless.common.antenna.IsotropicAntenna\""
par IEEE_802154_Mobile_Net.slave[1].wlan[0].radio.antenna mobilityModule "\"^.^.^.mobility\""
par IEEE_802154_Mobile_Net.slave[1].wlan[0].radio.antenna numAntennas 1
par IEEE_802154_Mobile_Net.slave[1].wlan[0].radio.transmitter typename "\"inet.physicallayer.wireless.ieee802154.packetlevel.Ieee802154NarrowbandScalarTransmitter\""
par IEEE_802154_Mobile_Net.slave[1].wlan[0].radio.transmitter preambleDuration 0.000128s
attr unit s
par IEEE_802154_Mobile_Net.slave[1].wlan[0].radio.transmitter headerLength 16b
attr unit b
par IEEE_802154_Mobile_Net.slave[1].wlan[0].radio.transmitter bitrate 250000bps
attr unit bps
par IEEE_802154_Mobile_Net.slave[1].wlan[0].radio.transmitter power 0.00224W
attr unit W
par IEEE_802154_Mobile_Net.slave[1].wlan[0].radio.transmitter centerFrequency 2.45e+09Hz
attr unit Hz
par IEEE_802154_Mobile_Net.slave[1].wlan[0].radio.transmitter bandwidth 2.8e+06Hz
attr unit Hz
par IEEE_802154_Mobile_Net.slave[1].wlan[0].radio.transmitter modulation "\"DSSS-OQPSK-16\""
par IEEE_802154_Mobile_Net.slave[1].wlan[0].radio.receiver.errorModel typename "\"inet.physicallayer.wireless.apsk.packetlevel.errormodel.ApskErrorModel\""
par IEEE_802154_Mobile_Net.slave[1].wlan[0].radio.receiver.errorModel corruptionMode "\"packet\""
attr enum packet,chunk,byte,bit
par IEEE_802154_Mobile_Net.slave[1].wlan[0].radio.receiver.errorModel snirMode "\"min\""
attr unit min,mean
par IEEE_802154_Mobile_Net.slave[1].wlan[0].radio.receiver.errorModel snirOffset 0dB
attr unit dB
par IEEE_802154_Mobile_Net.slave[1].wlan[0].radio.receiver typename "\"inet.physicallayer.wireless.ieee802154.packetlevel.Ieee802154NarrowbandScalarReceiver\""
par IEEE_802154_Mobile_Net.slave[1].wlan[0].radio.receiver snirThreshold -8dB
attr unit dB
par IEEE_802154_Mobile_Net.slave[1].wlan[0].radio.receiver snirThresholdMode "\"min\""
attr unit min,mean
par IEEE_802154_Mobile_Net.slave[1].wlan[0].radio.receiver energyDetection -90dBm
attr unit dBm
par IEEE_802154_Mobile_Net.slave[1].wlan[0].radio.receiver sensitivity -100dBm
attr unit dBm
par IEEE_802154_Mobile_Net.slave[1].wlan[0].radio.receiver centerFrequency 2.45e+09Hz
attr unit Hz
par IEEE_802154_Mobile_Net.slave[1].wlan[0].radio.receiver bandwidth 2.8e+06Hz
attr unit Hz
par IEEE_802154_Mobile_Net.slave[1].wlan[0].radio.receiver modulation "\"DSSS-OQPSK-16\""
par IEEE_802154_Mobile_Net.slave[1].wlan[0].radio.receiver minInterferencePower -120dBm
attr unit dBm
par IEEE_802154_Mobile_Net.slave[1].wlan[0].radio typename "\"inet.physicallayer.wireless.ieee802154.packetlevel.Ieee802154NarrowbandScalarRadio\""
par IEEE_802154_Mobile_Net.slave[1].wlan[0].radio radioMediumModule "\"radioMedium\""
par IEEE_802154_Mobile_Net.slave[1].wlan[0].radio energySourceModule "\"\""
par IEEE_802154_Mobile_Net.slave[1].wlan[0].radio initialRadioMode "\"off\""
attr enum off,sleep,receiver,transmitter,transceiver
par IEEE_802154_Mobile_Net.slave[1].wlan[0].radio switchingTimes "\"ms 0 0 0 0 0 0 0 0 0 0 0 0 0 0 0 0 0 0 0 0 0 0 0 0 0\""
par IEEE_802154_Mobile_Net.slave[1].wlan[0].radio sendRawBytes false
par IEEE_802154_Mobile_Net.slave[1].wlan[0].radio separateTransmissionParts false
par IEEE_802154_Mobile_Net.slave[1].wlan[0].radio separateReceptionParts false
par IEEE_802154_Mobile_Net.slave[1].wlan[0].radio displayCommunicationRange false
par IEEE_802154_Mobile_Net.slave[1].wlan[0].radio displayInterferenceRange false
par IEEE_802154_Mobile_Net.slave[1].wlan[0].radio centerFrequency 2.45e+09Hz
attr unit Hz
par IEEE_802154_Mobile_Net.slave[1].wlan[0].radio bandwidth 2.8e+06Hz
attr unit Hz
par IEEE_802154_Mobile_Net.slave[1].wlan[0].radio signalAnalogRepresentation "\"scalar\""
attr enum scalar,dimensional
statistic IEEE_802154_Mobile_Net.slave[1].wlan[0].radio minSnir:histogram
field count 0
field mean nan
field stddev nan
field min nan
field max nan
field sum 0
field sqrsum 0
attr recordingmode histogram
attr source minimumSnir(packetSentToUpper)
attr title "Min SNIR"
bin	-inf	0
bin	0	0
bin	1	0
statistic IEEE_802154_Mobile_Net.slave[1].wlan[0].radio packetErrorRate:histogram
field count 0
field mean nan
field stddev nan
field min nan
field max nan
field sum 0
field sqrsum 0
attr recordingmode histogram
attr source packetErrorRate(packetSentToUpper)
attr title "Packet error rate"
bin	-inf	0
bin	0	0
bin	1	0
statistic IEEE_802154_Mobile_Net.slave[1].wlan[0].radio bitErrorRate:histogram
field count 0
field mean nan
field stddev nan
field min nan
field max nan
field sum 0
field sqrsum 0
attr recordingmode histogram
attr source bitErrorRate(packetSentToUpper)
attr title "Bit error rate"
bin	-inf	0
bin	0	0
bin	1	0
statistic IEEE_802154_Mobile_Net.slave[1].wlan[0].radio symbolErrorRate:histogram
field count 0
field mean nan
field stddev nan
field min nan
field max nan
field sum 0
field sqrsum 0
attr recordingmode histogram
attr source symbolErrorRate(packetSentToUpper)
attr title "Symbol error rate"
bin	-inf	0
bin	0	0
bin	1	0
scalar IEEE_802154_Mobile_Net.slave[1].wlan[0].radio transmissionState:count 0
attr interpolationmode sample-hold
attr recordingmode count
attr source transmissionStateChanged
attr title "Radio transmission state, count"
scalar IEEE_802154_Mobile_Net.slave[1].wlan[0].radio receptionState:count 1
attr interpolationmode sample-hold
attr recordingmode count
attr source receptionStateChanged
attr title "Radio reception state, count"
scalar IEEE_802154_Mobile_Net.slave[1].wlan[0].radio radioMode:count 3
attr interpolationmode sample-hold
attr recordingmode count
attr source radioModeChanged
attr title "Radio mode, count"
par IEEE_802154_Mobile_Net.slave[1].wlan[0] typename "\"inet.linklayer.ieee802154.Ieee802154NarrowbandInterface\""
par IEEE_802154_Mobile_Net.slave[1].wlan[0] displayStringTextFormat "\"%a (%i)\\n%m\""
par IEEE_802154_Mobile_Net.slave[1].wlan[0] recordPcap false
par IEEE_802154_Mobile_Net.slave[1].wlan[0] numPcapRecorders 0
par IEEE_802154_Mobile_Net.slave[1].wlan[0] interfaceTableModule "\"IEEE_802154_Mobile_Net.slave[1].interfaceTable\""
par IEEE_802154_Mobile_Net.slave[1].wlan[0] energySourceModule "\"\""
scalar IEEE_802154_Mobile_Net.slave[1].wlan[0] packetDropInterfaceDown:count 0
attr interpolationmode none
attr recordingmode count
attr source packetDropReasonIsInterfaceDown(packetDropped)
attr title "packet drops: interface down, count"
scalar IEEE_802154_Mobile_Net.slave[1].wlan[0] packetDropInterfaceDown:sum(packetBytes) 0
attr interpolationmode none
attr recordingmode sum(packetBytes)
attr source packetDropReasonIsInterfaceDown(packetDropped)
attr title "packet drops: interface down, sum(packetBytes)"
scalar IEEE_802154_Mobile_Net.slave[1].wlan[0] packetDropNoCarrier:count 0
attr interpolationmode none
attr recordingmode count
attr source packetDropReasonIsNoCarrier(packetDropped)
attr title "packet drops: no carrier, count"
scalar IEEE_802154_Mobile_Net.slave[1].wlan[0] packetDropNoCarrier:sum(packetBytes) 0
attr interpolationmode none
attr recordingmode sum(packetBytes)
attr source packetDropReasonIsNoCarrier(packetDropped)
attr title "packet drops: no carrier, sum(packetBytes)"
par IEEE_802154_Mobile_Net.slave[1].ipv4.transportIn.channel typename "\"ned.IdealChannel\""
par IEEE_802154_Mobile_Net.slave[1].ipv4.up.out[0].channel typename "\"ned.IdealChannel\""
par IEEE_802154_Mobile_Net.slave[1].ipv4.lp.out[2].channel typename "\"ned.IdealChannel\""
par IEEE_802154_Mobile_Net.slave[1].ipv4.ifIn.channel typename "\"ned.IdealChannel\""
par IEEE_802154_Mobile_Net.slave[1].ipv4.configurator typename "\"inet.networklayer.configurator.ipv4.Ipv4NodeConfigurator\""
par IEEE_802154_Mobile_Net.slave[1].ipv4.configurator interfaceTableModule "\"IEEE_802154_Mobile_Net.slave[1].interfaceTable\""
par IEEE_802154_Mobile_Net.slave[1].ipv4.configurator routingTableModule "\"IEEE_802154_Mobile_Net.slave[1].ipv4.routingTable\""
par IEEE_802154_Mobile_Net.slave[1].ipv4.configurator networkConfiguratorModule "\"configurator\""
par IEEE_802154_Mobile_Net.slave[1].ipv4.configurator configureRoutingTable true
par IEEE_802154_Mobile_Net.slave[1].ipv4.routingTable typename "\"inet.networklayer.ipv4.Ipv4RoutingTable\""
par IEEE_802154_Mobile_Net.slave[1].ipv4.routingTable interfaceTableModule "\"IEEE_802154_Mobile_Net.slave[1].interfaceTable\""
par IEEE_802154_Mobile_Net.slave[1].ipv4.routingTable routerId "\"auto\""
par IEEE_802154_Mobile_Net.slave[1].ipv4.routingTable netmaskRoutes "\"\""
par IEEE_802154_Mobile_Net.slave[1].ipv4.routingTable forwarding false
par IEEE_802154_Mobile_Net.slave[1].ipv4.routingTable multicastForwarding false
par IEEE_802154_Mobile_Net.slave[1].ipv4.routingTable useAdminDist false
par IEEE_802154_Mobile_Net.slave[1].ipv4.routingTable routingFile "\"\""
par IEEE_802154_Mobile_Net.slave[1].ipv4.natTable typename "\"inet.networklayer.ipv4.Ipv4NatTable\""
par IEEE_802154_Mobile_Net.slave[1].ipv4.natTable networkProtocolModule "\"^.ip\""
par IEEE_802154_Mobile_Net.slave[1].ipv4.natTable config "<config/> at content:1"
par IEEE_802154_Mobile_Net.slave[1].ipv4.up typename "\"inet.common.MessageDispatcher\""
par IEEE_802154_Mobile_Net.slave[1].ipv4.up displayStringTextFormat "\"processed %p pk (%l)\""
par IEEE_802154_Mobile_Net.slave[1].ipv4.up forwardServiceRegistration true
par IEEE_802154_Mobile_Net.slave[1].ipv4.up forwardProtocolRegistration true
par IEEE_802154_Mobile_Net.slave[1].ipv4.igmp typename "\"inet.networklayer.ipv4.Igmpv2\""
par IEEE_802154_Mobile_Net.slave[1].ipv4.igmp interfaceTableModule "\"IEEE_802154_Mobile_Net.slave[1].interfaceTable\""
par IEEE_802154_Mobile_Net.slave[1].ipv4.igmp routingTableModule "\"IEEE_802154_Mobile_Net.slave[1].ipv4.routingTable\""
par IEEE_802154_Mobile_Net.slave[1].ipv4.igmp crcMode "\"declared\""
attr enum declared,computed
par IEEE_802154_Mobile_Net.slave[1].ipv4.igmp enabled true
par IEEE_802154_Mobile_Net.slave[1].ipv4.igmp robustnessVariable 2
par IEEE_802154_Mobile_Net.slave[1].ipv4.igmp queryInterval 125s
attr unit s
par IEEE_802154_Mobile_Net.slave[1].ipv4.igmp queryResponseInterval 10s
attr unit s
par IEEE_802154_Mobile_Net.slave[1].ipv4.igmp groupMembershipInterval 260s
attr unit s
par IEEE_802154_Mobile_Net.slave[1].ipv4.igmp otherQuerierPresentInterval 255s
attr unit s
par IEEE_802154_Mobile_Net.slave[1].ipv4.igmp startupQueryInterval 31.25s
attr unit s
par IEEE_802154_Mobile_Net.slave[1].ipv4.igmp startupQueryCount 2
par IEEE_802154_Mobile_Net.slave[1].ipv4.igmp lastMemberQueryInterval 1s
attr unit s
par IEEE_802154_Mobile_Net.slave[1].ipv4.igmp lastMemberQueryCount 2
par IEEE_802154_Mobile_Net.slave[1].ipv4.igmp unsolicitedReportInterval 10s
attr unit s
par IEEE_802154_Mobile_Net.slave[1].ipv4.icmp typename "\"inet.networklayer.ipv4.Icmp\""
[...]
attr enum realTime,animationTime,simulationTime
par IEEE_802154_Mobile_Net.integratedMultiCanvasVisualizer.linkBreakVisualizer[0] fadeOutTime 1s
attr unit s
par IEEE_802154_Mobile_Net.integratedMultiCanvasVisualizer.linkBreakVisualizer[0] fadeOutAnimationSpeed 0
par IEEE_802154_Mobile_Net.integratedMultiCanvasVisualizer.linkBreakVisualizer[0] zIndex 2
par IEEE_802154_Mobile_Net.integratedMultiCanvasVisualizer.ieee80211Visualizer[0] typename "\"inet.visualizer.canvas.linklayer.Ieee80211CanvasVisualizer\""
par IEEE_802154_Mobile_Net.integratedMultiCanvasVisualizer.ieee80211Visualizer[0] visualizationTargetModule "\"^.^\""
par IEEE_802154_Mobile_Net.integratedMultiCanvasVisualizer.ieee80211Visualizer[0] visualizationSubjectModule "\"^.^\""
par IEEE_802154_Mobile_Net.integratedMultiCanvasVisualizer.ieee80211Visualizer[0] tags "\"\""
par IEEE_802154_Mobile_Net.integratedMultiCanvasVisualizer.ieee80211Visualizer[0] networkNodeVisualizerModule "\"IEEE_802154_Mobile_Net.integratedMultiCanvasVisualizer.networkNodeVisualizer[0]\""
par IEEE_802154_Mobile_Net.integratedMultiCanvasVisualizer.ieee80211Visualizer[0] displayAssociations false
par IEEE_802154_Mobile_Net.integratedMultiCanvasVisualizer.ieee80211Visualizer[0] nodeFilter "\"*\""
attr mutable ""
par IEEE_802154_Mobile_Net.integratedMultiCanvasVisualizer.ieee80211Visualizer[0] interfaceFilter "\"*\""
attr mutable ""
par IEEE_802154_Mobile_Net.integratedMultiCanvasVisualizer.ieee80211Visualizer[0] minPower -85dBm
attr unit dBm
par IEEE_802154_Mobile_Net.integratedMultiCanvasVisualizer.ieee80211Visualizer[0] maxPower -50dBm
attr unit dBm
par IEEE_802154_Mobile_Net.integratedMultiCanvasVisualizer.ieee80211Visualizer[0] icons "\"misc/signal_power_0 misc/signal_power_1 misc/signal_power_2 misc/signal_power_3\""
par IEEE_802154_Mobile_Net.integratedMultiCanvasVisualizer.ieee80211Visualizer[0] iconColor "\"dark\""
attr enum light,dark
par IEEE_802154_Mobile_Net.integratedMultiCanvasVisualizer.ieee80211Visualizer[0] labelFont "\"<default>\""
par IEEE_802154_Mobile_Net.integratedMultiCanvasVisualizer.ieee80211Visualizer[0] labelColor "\"black\""
par IEEE_802154_Mobile_Net.integratedMultiCanvasVisualizer.ieee80211Visualizer[0] placementHint "\"top\""
par IEEE_802154_Mobile_Net.integratedMultiCanvasVisualizer.ieee80211Visualizer[0] placementPriority 0
par IEEE_802154_Mobile_Net.integratedMultiCanvasVisualizer.ieee80211Visualizer[0] zIndex 2
par IEEE_802154_Mobile_Net.integratedMultiCanvasVisualizer.networkRouteVisualizer[0] typename "\"inet.visualizer.canvas.networklayer.NetworkRouteCanvasVisualizer\""
par IEEE_802154_Mobile_Net.integratedMultiCanvasVisualizer.networkRouteVisualizer[0] visualizationTargetModule "\"^.^\""
par IEEE_802154_Mobile_Net.integratedMultiCanvasVisualizer.networkRouteVisualizer[0] visualizationSubjectModule "\"^.^\""
par IEEE_802154_Mobile_Net.integratedMultiCanvasVisualizer.networkRouteVisualizer[0] tags "\"\""
par IEEE_802154_Mobile_Net.integratedMultiCanvasVisualizer.networkRouteVisualizer[0] displayRoutes false
par IEEE_802154_Mobile_Net.integratedMultiCanvasVisualizer.networkRouteVisualizer[0] startPathSignal "\"packetReceivedFromUpper\""
par IEEE_802154_Mobile_Net.integratedMultiCanvasVisualizer.networkRouteVisualizer[0] extendPathSignal "\"packetReceivedFromLower\""
par IEEE_802154_Mobile_Net.integratedMultiCanvasVisualizer.networkRouteVisualizer[0] endPathSignal "\"packetSentToUpper\""
par IEEE_802154_Mobile_Net.integratedMultiCanvasVisualizer.networkRouteVisualizer[0] nodeFilter "\"*\""
attr mutable ""
par IEEE_802154_Mobile_Net.integratedMultiCanvasVisualizer.networkRouteVisualizer[0] packetFilter "(omnetpp::cValueHolder)holder: \"*\""
attr mutable ""
par IEEE_802154_Mobile_Net.integratedMultiCanvasVisualizer.networkRouteVisualizer[0] lineColor "\"dark\""
attr enum light,dark
par IEEE_802154_Mobile_Net.integratedMultiCanvasVisualizer.networkRouteVisualizer[0] lineStyle "\"solid\""
par IEEE_802154_Mobile_Net.integratedMultiCanvasVisualizer.networkRouteVisualizer[0] lineWidth 3
par IEEE_802154_Mobile_Net.integratedMultiCanvasVisualizer.networkRouteVisualizer[0] lineSmooth false
par IEEE_802154_Mobile_Net.integratedMultiCanvasVisualizer.networkRouteVisualizer[0] lineShift 16
par IEEE_802154_Mobile_Net.integratedMultiCanvasVisualizer.networkRouteVisualizer[0] lineShiftMode "\"normal\""
par IEEE_802154_Mobile_Net.integratedMultiCanvasVisualizer.networkRouteVisualizer[0] lineContactSpacing 3
par IEEE_802154_Mobile_Net.integratedMultiCanvasVisualizer.networkRouteVisualizer[0] lineContactMode "\"rectangular\""
attr enum circular,rectangular
par IEEE_802154_Mobile_Net.integratedMultiCanvasVisualizer.networkRouteVisualizer[0] labelFormat "\"%n\""
par IEEE_802154_Mobile_Net.integratedMultiCanvasVisualizer.networkRouteVisualizer[0] labelFont "\"<default>, 8px\""
par IEEE_802154_Mobile_Net.integratedMultiCanvasVisualizer.networkRouteVisualizer[0] labelColor "\"\""
par IEEE_802154_Mobile_Net.integratedMultiCanvasVisualizer.networkRouteVisualizer[0] fadeOutMode "\"realTime\""
attr enum realTime,animationTime,simulationTime
par IEEE_802154_Mobile_Net.integratedMultiCanvasVisualizer.networkRouteVisualizer[0] fadeOutTime 1s
attr unit s
par IEEE_802154_Mobile_Net.integratedMultiCanvasVisualizer.networkRouteVisualizer[0] fadeOutAnimationSpeed 0
par IEEE_802154_Mobile_Net.integratedMultiCanvasVisualizer.networkRouteVisualizer[0] zIndex 3
par IEEE_802154_Mobile_Net.integratedMultiCanvasVisualizer.routingTableVisualizer[0] typename "\"inet.visualizer.canvas.networklayer.RoutingTableCanvasVisualizer\""
par IEEE_802154_Mobile_Net.integratedMultiCanvasVisualizer.routingTableVisualizer[0] visualizationTargetModule "\"^.^\""
par IEEE_802154_Mobile_Net.integratedMultiCanvasVisualizer.routingTableVisualizer[0] visualizationSubjectModule "\"^.^\""
par IEEE_802154_Mobile_Net.integratedMultiCanvasVisualizer.routingTableVisualizer[0] tags "\"\""
par IEEE_802154_Mobile_Net.integratedMultiCanvasVisualizer.routingTableVisualizer[0] displayRoutingTables false
par IEEE_802154_Mobile_Net.integratedMultiCanvasVisualizer.routingTableVisualizer[0] displayRoutesIndividually true
par IEEE_802154_Mobile_Net.integratedMultiCanvasVisualizer.routingTableVisualizer[0] displayLabels true
par IEEE_802154_Mobile_Net.integratedMultiCanvasVisualizer.routingTableVisualizer[0] destinationFilter "\"*\""
attr mutable ""
par IEEE_802154_Mobile_Net.integratedMultiCanvasVisualizer.routingTableVisualizer[0] nodeFilter "\"*\""
attr mutable ""
par IEEE_802154_Mobile_Net.integratedMultiCanvasVisualizer.routingTableVisualizer[0] lineColor "\"black\""
par IEEE_802154_Mobile_Net.integratedMultiCanvasVisualizer.routingTableVisualizer[0] lineStyle "\"solid\""
par IEEE_802154_Mobile_Net.integratedMultiCanvasVisualizer.routingTableVisualizer[0] lineWidth 2
par IEEE_802154_Mobile_Net.integratedMultiCanvasVisualizer.routingTableVisualizer[0] lineShift 16
par IEEE_802154_Mobile_Net.integratedMultiCanvasVisualizer.routingTableVisualizer[0] lineShiftMode "\"normal\""
par IEEE_802154_Mobile_Net.integratedMultiCanvasVisualizer.routingTableVisualizer[0] lineContactSpacing 3
par IEEE_802154_Mobile_Net.integratedMultiCanvasVisualizer.routingTableVisualizer[0] lineContactMode "\"rectangular\""
attr enum circular,rectangular
par IEEE_802154_Mobile_Net.integratedMultiCanvasVisualizer.routingTableVisualizer[0] labelFormat "\"%d/%m -> %g (%n)\""
attr mutable ""
par IEEE_802154_Mobile_Net.integratedMultiCanvasVisualizer.routingTableVisualizer[0] labelFont "\"<default>, 8px\""
par IEEE_802154_Mobile_Net.integratedMultiCanvasVisualizer.routingTableVisualizer[0] labelColor "\"black\""
par IEEE_802154_Mobile_Net.integratedMultiCanvasVisualizer.routingTableVisualizer[0] zIndex 0
par IEEE_802154_Mobile_Net.integratedMultiCanvasVisualizer.transportRouteVisualizer[0] typename "\"inet.visualizer.canvas.transportlayer.TransportRouteCanvasVisualizer\""
par IEEE_802154_Mobile_Net.integratedMultiCanvasVisualizer.transportRouteVisualizer[0] visualizationTargetModule "\"^.^\""
par IEEE_802154_Mobile_Net.integratedMultiCanvasVisualizer.transportRouteVisualizer[0] visualizationSubjectModule "\"^.^\""
par IEEE_802154_Mobile_Net.integratedMultiCanvasVisualizer.transportRouteVisualizer[0] tags "\"\""
par IEEE_802154_Mobile_Net.integratedMultiCanvasVisualizer.transportRouteVisualizer[0] displayRoutes false
par IEEE_802154_Mobile_Net.integratedMultiCanvasVisualizer.transportRouteVisualizer[0] startPathSignal "\"packetReceivedFromUpper\""
par IEEE_802154_Mobile_Net.integratedMultiCanvasVisualizer.transportRouteVisualizer[0] extendPathSignal "\"packetReceivedFromLower\""
par IEEE_802154_Mobile_Net.integratedMultiCanvasVisualizer.transportRouteVisualizer[0] endPathSignal "\"packetSentToUpper\""
par IEEE_802154_Mobile_Net.integratedMultiCanvasVisualizer.transportRouteVisualizer[0] nodeFilter "\"*\""
attr mutable ""
par IEEE_802154_Mobile_Net.integratedMultiCanvasVisualizer.transportRouteVisualizer[0] packetFilter "(omnetpp::cValueHolder)holder: \"*\""
attr mutable ""
par IEEE_802154_Mobile_Net.integratedMultiCanvasVisualizer.transportRouteVisualizer[0] lineColor "\"dark\""
attr enum light,dark
par IEEE_802154_Mobile_Net.integratedMultiCanvasVisualizer.transportRouteVisualizer[0] lineStyle "\"solid\""
par IEEE_802154_Mobile_Net.integratedMultiCanvasVisualizer.transportRouteVisualizer[0] lineWidth 3
par IEEE_802154_Mobile_Net.integratedMultiCanvasVisualizer.transportRouteVisualizer[0] lineSmooth false
par IEEE_802154_Mobile_Net.integratedMultiCanvasVisualizer.transportRouteVisualizer[0] lineShift 16
par IEEE_802154_Mobile_Net.integratedMultiCanvasVisualizer.transportRouteVisualizer[0] lineShiftMode "\"normal\""
par IEEE_802154_Mobile_Net.integratedMultiCanvasVisualizer.transportRouteVisualizer[0] lineContactSpacing 3
par IEEE_802154_Mobile_Net.integratedMultiCanvasVisualizer.transportRouteVisualizer[0] lineContactMode "\"rectangular\""
attr enum circular,rectangular
par IEEE_802154_Mobile_Net.integratedMultiCanvasVisualizer.transportRouteVisualizer[0] labelFormat "\"%n\""
par IEEE_802154_Mobile_Net.integratedMultiCanvasVisualizer.transportRouteVisualizer[0] labelFont "\"<default>, 8px\""
par IEEE_802154_Mobile_Net.integratedMultiCanvasVisualizer.transportRouteVisualizer[0] labelColor "\"\""
par IEEE_802154_Mobile_Net.integratedMultiCanvasVisualizer.transportRouteVisualizer[0] fadeOutMode "\"realTime\""
attr enum realTime,animationTime,simulationTime
par IEEE_802154_Mobile_Net.integratedMultiCanvasVisualizer.transportRouteVisualizer[0] fadeOutTime 1s
attr unit s
par IEEE_802154_Mobile_Net.integratedMultiCanvasVisualizer.transportRouteVisualizer[0] fadeOutAnimationSpeed 0
par IEEE_802154_Mobile_Net.integratedMultiCanvasVisualizer.transportRouteVisualizer[0] zIndex 4
par IEEE_802154_Mobile_Net.integratedMultiCanvasVisualizer.transportConnectionVisualizer[0] typename "\"inet.visualizer.canvas.transportlayer.TransportConnectionCanvasVisualizer\""
par IEEE_802154_Mobile_Net.integratedMultiCanvasVisualizer.transportConnectionVisualizer[0] visualizationTargetModule "\"^.^\""
par IEEE_802154_Mobile_Net.integratedMultiCanvasVisualizer.transportConnectionVisualizer[0] visualizationSubjectModule "\"^.^\""
par IEEE_802154_Mobile_Net.integratedMultiCanvasVisualizer.transportConnectionVisualizer[0] tags "\"\""
par IEEE_802154_Mobile_Net.integratedMultiCanvasVisualizer.transportConnectionVisualizer[0] networkNodeVisualizerModule "\"IEEE_802154_Mobile_Net.integratedMultiCanvasVisualizer.networkNodeVisualizer[0]\""
par IEEE_802154_Mobile_Net.integratedMultiCanvasVisualizer.transportConnectionVisualizer[0] displayTransportConnections false
par IEEE_802154_Mobile_Net.integratedMultiCanvasVisualizer.transportConnectionVisualizer[0] sourceNodeFilter "\"*\""
attr mutable ""
par IEEE_802154_Mobile_Net.integratedMultiCanvasVisualizer.transportConnectionVisualizer[0] sourcePortFilter "\"*\""
attr mutable ""
par IEEE_802154_Mobile_Net.integratedMultiCanvasVisualizer.transportConnectionVisualizer[0] destinationNodeFilter "\"*\""
attr mutable ""
par IEEE_802154_Mobile_Net.integratedMultiCanvasVisualizer.transportConnectionVisualizer[0] destinationPortFilter "\"*\""
attr mutable ""
par IEEE_802154_Mobile_Net.integratedMultiCanvasVisualizer.transportConnectionVisualizer[0] icon "\"misc/marker_s\""
par IEEE_802154_Mobile_Net.integratedMultiCanvasVisualizer.transportConnectionVisualizer[0] iconColor "\"dark\""
attr enum light,dark
par IEEE_802154_Mobile_Net.integratedMultiCanvasVisualizer.transportConnectionVisualizer[0] labelFont "\"<default>\""
par IEEE_802154_Mobile_Net.integratedMultiCanvasVisualizer.transportConnectionVisualizer[0] labelColor "\"black\""
par IEEE_802154_Mobile_Net.integratedMultiCanvasVisualizer.transportConnectionVisualizer[0] placementHint "\"top\""
par IEEE_802154_Mobile_Net.integratedMultiCanvasVisualizer.transportConnectionVisualizer[0] placementPriority 0
par IEEE_802154_Mobile_Net.integratedMultiCanvasVisualizer.transportConnectionVisualizer[0] zIndex 4
par IEEE_802154_Mobile_Net.integratedMultiCanvasVisualizer.failureProtectionConfigurationVisualizer[0] typename "\"inet.visualizer.canvas.configurator.FailureProtectionConfigurationCanvasVisualizer\""
par IEEE_802154_Mobile_Net.integratedMultiCanvasVisualizer.failureProtectionConfigurationVisualizer[0] visualizationTargetModule "\"^.^\""
par IEEE_802154_Mobile_Net.integratedMultiCanvasVisualizer.failureProtectionConfigurationVisualizer[0] visualizationSubjectModule "\"^.^\""
par IEEE_802154_Mobile_Net.integratedMultiCanvasVisualizer.failureProtectionConfigurationVisualizer[0] tags "\"\""
par IEEE_802154_Mobile_Net.integratedMultiCanvasVisualizer.failureProtectionConfigurationVisualizer[0] displayTrees false
par IEEE_802154_Mobile_Net.integratedMultiCanvasVisualizer.failureProtectionConfigurationVisualizer[0] lineColor "\"dark\""
attr enum light,dark
par IEEE_802154_Mobile_Net.integratedMultiCanvasVisualizer.failureProtectionConfigurationVisualizer[0] lineStyle "\"solid\""
par IEEE_802154_Mobile_Net.integratedMultiCanvasVisualizer.failureProtectionConfigurationVisualizer[0] lineWidth 3
par IEEE_802154_Mobile_Net.integratedMultiCanvasVisualizer.failureProtectionConfigurationVisualizer[0] lineSmooth false
par IEEE_802154_Mobile_Net.integratedMultiCanvasVisualizer.failureProtectionConfigurationVisualizer[0] lineShift 16
par IEEE_802154_Mobile_Net.integratedMultiCanvasVisualizer.failureProtectionConfigurationVisualizer[0] lineShiftMode "\"normal\""
par IEEE_802154_Mobile_Net.integratedMultiCanvasVisualizer.failureProtectionConfigurationVisualizer[0] lineContactSpacing 3
par IEEE_802154_Mobile_Net.integratedMultiCanvasVisualizer.failureProtectionConfigurationVisualizer[0] lineContactMode "\"rectangular\""
attr enum circular,rectangular
par IEEE_802154_Mobile_Net.integratedMultiCanvasVisualizer.failureProtectionConfigurationVisualizer[0] failureProtectionConfiguratorModule "\"failureProtectionConfigurator\""
par IEEE_802154_Mobile_Net.integratedMultiCanvasVisualizer.failureProtectionConfigurationVisualizer[0] streamFilter "\"*\""
par IEEE_802154_Mobile_Net.integratedMultiCanvasVisualizer.failureProtectionConfigurationVisualizer[0] zIndex 3
par IEEE_802154_Mobile_Net.integratedMultiCanvasVisualizer.streamRedundancyConfigurationVisualizer[0] typename "\"inet.visualizer.canvas.configurator.StreamRedundancyConfigurationCanvasVisualizer\""
par IEEE_802154_Mobile_Net.integratedMultiCanvasVisualizer.streamRedundancyConfigurationVisualizer[0] visualizationTargetModule "\"^.^\""
par IEEE_802154_Mobile_Net.integratedMultiCanvasVisualizer.streamRedundancyConfigurationVisualizer[0] visualizationSubjectModule "\"^.^\""
par IEEE_802154_Mobile_Net.integratedMultiCanvasVisualizer.streamRedundancyConfigurationVisualizer[0] tags "\"\""
par IEEE_802154_Mobile_Net.integratedMultiCanvasVisualizer.streamRedundancyConfigurationVisualizer[0] displayTrees false
par IEEE_802154_Mobile_Net.integratedMultiCanvasVisualizer.streamRedundancyConfigurationVisualizer[0] lineColor "\"dark\""
attr enum light,dark
par IEEE_802154_Mobile_Net.integratedMultiCanvasVisualizer.streamRedundancyConfigurationVisualizer[0] lineStyle "\"solid\""
par IEEE_802154_Mobile_Net.integratedMultiCanvasVisualizer.streamRedundancyConfigurationVisualizer[0] lineWidth 3
par IEEE_802154_Mobile_Net.integratedMultiCanvasVisualizer.streamRedundancyConfigurationVisualizer[0] lineSmooth false
par IEEE_802154_Mobile_Net.integratedMultiCanvasVisualizer.streamRedundancyConfigurationVisualizer[0] lineShift 16
par IEEE_802154_Mobile_Net.integratedMultiCanvasVisualizer.streamRedundancyConfigurationVisualizer[0] lineShiftMode "\"normal\""
par IEEE_802154_Mobile_Net.integratedMultiCanvasVisualizer.streamRedundancyConfigurationVisualizer[0] lineContactSpacing 3
par IEEE_802154_Mobile_Net.integratedMultiCanvasVisualizer.streamRedundancyConfigurationVisualizer[0] lineContactMode "\"rectangular\""
attr enum circular,rectangular
par IEEE_802154_Mobile_Net.integratedMultiCanvasVisualizer.streamRedundancyConfigurationVisualizer[0] streamRedundancyConfiguratorModule "\"streamRedundancyConfigurator\""
par IEEE_802154_Mobile_Net.integratedMultiCanvasVisualizer.streamRedundancyConfigurationVisualizer[0] streamFilter "\"*\""
par IEEE_802154_Mobile_Net.integratedMultiCanvasVisualizer.streamRedundancyConfigurationVisualizer[0] zIndex 3
par IEEE_802154_Mobile_Net.integratedMultiCanvasVisualizer typename "\"inet.visualizer.canvas.integrated.IntegratedMultiCanvasVisualizer\""
par IEEE_802154_Mobile_Net.integratedMultiCanvasVisualizer numSceneVisualizers 1
par IEEE_802154_Mobile_Net.integratedMultiCanvasVisualizer numPhysicalEnvironmentVisualizers 1
par IEEE_802154_Mobile_Net.integratedMultiCanvasVisualizer numNetworkNodeVisualizers 1
par IEEE_802154_Mobile_Net.integratedMultiCanvasVisualizer numNetworkConnectionVisualizers 1
par IEEE_802154_Mobile_Net.integratedMultiCanvasVisualizer numMobilityVisualizers 1
par IEEE_802154_Mobile_Net.integratedMultiCanvasVisualizer numStatisticVisualizers 1
par IEEE_802154_Mobile_Net.integratedMultiCanvasVisualizer numInfoVisualizers 1
par IEEE_802154_Mobile_Net.integratedMultiCanvasVisualizer numEnergyStorageVisualizers 1
par IEEE_802154_Mobile_Net.integratedMultiCanvasVisualizer numMediumVisualizers 1
par IEEE_802154_Mobile_Net.integratedMultiCanvasVisualizer numObstacleLossVisualizers 1
par IEEE_802154_Mobile_Net.integratedMultiCanvasVisualizer numPacketDropVisualizers 1
par IEEE_802154_Mobile_Net.integratedMultiCanvasVisualizer numQueueVisualizers 1
par IEEE_802154_Mobile_Net.integratedMultiCanvasVisualizer numGateScheduleVisualizers 1
par IEEE_802154_Mobile_Net.integratedMultiCanvasVisualizer numRadioVisualizers 1
par IEEE_802154_Mobile_Net.integratedMultiCanvasVisualizer numPhysicalLinkVisualizers 1
par IEEE_802154_Mobile_Net.integratedMultiCanvasVisualizer numInterfaceTableVisualizers 1
par IEEE_802154_Mobile_Net.integratedMultiCanvasVisualizer numDataLinkVisualizers 1
par IEEE_802154_Mobile_Net.integratedMultiCanvasVisualizer numLinkBreakVisualizers 1
par IEEE_802154_Mobile_Net.integratedMultiCanvasVisualizer numIeee80211Visualizers 1
par IEEE_802154_Mobile_Net.integratedMultiCanvasVisualizer numNetworkRouteVisualizers 1
par IEEE_802154_Mobile_Net.integratedMultiCanvasVisualizer numRoutingTableVisualizers 1
par IEEE_802154_Mobile_Net.integratedMultiCanvasVisualizer numTransportRouteVisualizers 1
par IEEE_802154_Mobile_Net.integratedMultiCanvasVisualizer numTransportConnectionVisualizers 1
par IEEE_802154_Mobile_Net.integratedMultiCanvasVisualizer numFailureProtectionConfigurationVisualizers 1
par IEEE_802154_Mobile_Net.integratedMultiCanvasVisualizer numStreamRedundancyConfigurationVisualizers 1
par IEEE_802154_Mobile_Net typename "\"IEEE_802154_Mobile_Net\""
par IEEE_802154_Mobile_Net num 65

